  Page 1                                    Tue Mar  7 12:01:36 2023

  ******************************************************************
  *                           E P A N E T                          *
  *                   Hydraulic and Water Quality                  *
  *                   Analysis for Pipe Networks                   *
  *                         Version 2.2                            *
  ******************************************************************
  
  Analysis begun Tue Mar  7 12:01:36 2023

   
  Node Results at 0:00:00 hrs:
  ----------------------------------------------
                     Demand      Head  Pressure
  Node                 m3/h         m         m
  ----------------------------------------------
  1                   99.53    189.33     29.33
  2                   99.53    202.77     52.77
  3                  268.72    176.35     26.35
  4                  119.43    198.57     43.57
  5                  199.05    185.42     25.42
  6                  328.44    194.53     29.53
  7                -1114.69    210.00      0.00  Reservoir
   
   
  Link Results at 0:00:00 hrs:
  ------------------------------------
                       Flow     State
  Link                 m3/h          
  ------------------------------------
  1                  184.55      open
  2                   85.02      open
  3                  830.62      open
  4                  113.65      open
  5                   70.05      open
  6                  597.54      open
  7                  269.10      open
  8                 1114.69      open
   
   
  Node Results at 1:00:00 hrs:
  ----------------------------------------------
                     Demand      Head  Pressure
  Node                 m3/h         m         m
  ----------------------------------------------
  1                   61.44    201.54     41.54
  2                   61.44    207.04     57.04
  3                  165.89    196.23     46.23
  4                   73.73    205.32     50.32
  5                  122.88    199.94     39.94
  6                  202.75    203.67     38.67
  7                 -688.14    210.00      0.00  Reservoir
   
   
  Link Results at 1:00:00 hrs:
  ------------------------------------
                       Flow     State
  Link                 m3/h          
  ------------------------------------
  1                  113.93      open
  2                   52.49      open
  3                  512.77      open
  4                   70.16      open
  5                   43.24      open
  6                  368.88      open
  7                  166.13      open
  8                  688.14      open
   
   
  Node Results at 2:00:00 hrs:
  ----------------------------------------------
                     Demand      Head  Pressure
  Node                 m3/h         m         m
  ----------------------------------------------
  1                   52.94    203.58     43.58
  2                   52.94    207.75     57.75
  3                  142.93    199.55     49.55
  4                   63.52    206.45     51.45
  5                  105.87    202.36     42.36
  6                  174.69    205.19     40.19
  7                 -592.89    210.00      0.00  Reservoir
   
   
  Link Results at 2:00:00 hrs:
  ------------------------------------
                       Flow     State
  Link                 m3/h          
  ------------------------------------
  1                   98.16      open
  2                   45.22      open
  3                  441.79      open
  4                   60.45      open
  5                   37.26      open
  6                  317.82      open
  7                  143.13      open
  8                  592.89      open
   
   
  Node Results at 3:00:00 hrs:
  ----------------------------------------------
                     Demand      Head  Pressure
  Node                 m3/h         m         m
  ----------------------------------------------
  1                   45.38    205.17     45.17
  2                   45.38    208.31     58.31
  3                  122.52    202.14     52.14
  4                   54.45    207.33     52.33
  5                   90.76    204.26     44.26
  6                  149.75    206.39     41.39
  7                 -508.24    210.00      0.00  Reservoir
   
   
  Link Results at 3:00:00 hrs:
  ------------------------------------
                       Flow     State
  Link                 m3/h          
  ------------------------------------
  1                   84.14      open
  2                   38.76      open
  3                  378.71      open
  4                   51.82      open
  5                   31.94      open
  6                  272.44      open
  7                  122.70      open
  8                  508.24      open
   
   
  Node Results at 4:00:00 hrs:
  ----------------------------------------------
                     Demand      Head  Pressure
  Node                 m3/h         m         m
  ----------------------------------------------
  1                   33.36    207.27     47.27
  2                   33.36    209.04     59.04
  3                   90.08    205.55     55.55
  4                   40.03    208.49     53.49
  5                   66.72    206.75     46.75
  6                  110.09    207.96     42.96
  7                 -373.65    210.00      0.00  Reservoir
   
   
  Link Results at 4:00:00 hrs:
  ------------------------------------
                       Flow     State
  Link                 m3/h          
  ------------------------------------
  1                   61.86      open
  2                   28.50      open
  3                  278.43      open
  4                   38.10      open
  5                   23.48      open
  6                  200.30      open
  7                   90.20      open
  8                  373.65      open
   
   
  Node Results at 5:00:00 hrs:
  ----------------------------------------------
                     Demand      Head  Pressure
  Node                 m3/h         m         m
  ----------------------------------------------
  1                   37.65    206.58     46.58
  2                   37.65    208.80     58.80
  3                  101.67    204.44     54.44
  4                   45.19    208.11     53.11
  5                   75.31    205.94     45.94
  6                  124.26    207.44     42.44
  7                 -421.73    210.00      0.00  Reservoir
   
   
  Link Results at 5:00:00 hrs:
  ------------------------------------
                       Flow     State
  Link                 m3/h          
  ------------------------------------
  1                   69.82      open
  2                   32.17      open
  3                  314.25      open
  4                   43.00      open
  5                   26.50      open
  6                  226.07      open
  7                  101.81      open
  8                  421.73      open
   
   
  Node Results at 6:00:00 hrs:
  ----------------------------------------------
                     Demand      Head  Pressure
  Node                 m3/h         m         m
  ----------------------------------------------
  1                   52.85    203.60     43.60
  2                   52.85    207.76     57.76
  3                  142.70    199.58     49.58
  4                   63.42    206.46     51.46
  5                  105.70    202.39     42.39
  6                  174.41    205.21     40.21
  7                 -591.92    210.00      0.00  Reservoir
   
   
  Link Results at 6:00:00 hrs:
  ------------------------------------
                       Flow     State
  Link                 m3/h          
  ------------------------------------
  1                   98.00      open
  2                   45.15      open
  3                  441.07      open
  4                   60.35      open
  5                   37.20      open
  6                  317.30      open
  7                  142.90      open
  8                  591.92      open
   
   
  Node Results at 7:00:00 hrs:
  ----------------------------------------------
                     Demand      Head  Pressure
  Node                 m3/h         m         m
  ----------------------------------------------
  1                  118.91    181.26     21.26
  2                  118.91    199.94     49.94
  3                  321.06    163.21     13.21
  4                  142.69    194.11     39.11
  5                  237.82    175.82     15.82
  6                  392.40    188.49     23.49
  7                -1331.79    210.00      0.00  Reservoir
   
   
  Link Results at 7:00:00 hrs:
  ------------------------------------
                       Flow     State
  Link                 m3/h          
  ------------------------------------
  1                  220.49      open
  2                  101.58      open
  3                  992.39      open
  4                  135.78      open
  5                   83.69      open
  6                  713.92      open
  7                  321.51      open
  8                 1331.79      open
   
   
  Node Results at 8:00:00 hrs:
  ----------------------------------------------
                     Demand      Head  Pressure
  Node                 m3/h         m         m
  ----------------------------------------------
  1                  159.01    168.92      8.92
  2                  159.01    194.81     44.81
  3                  325.24    150.06      0.06
  4                  190.81    185.98     30.98
  5                  305.07    160.09      0.09
  6                  524.73    177.28     12.28
  7                -1663.87    210.00      0.00  Reservoir
   
   
  Link Results at 8:00:00 hrs:
  ------------------------------------
                       Flow     State
  Link                 m3/h          
  ------------------------------------
  1                  263.01      open
  2                  104.00      open
  3                 1241.85      open
  4                  147.27      open
  5                   73.97      open
  6                  903.77      open
  7                  379.04      open
  8                 1663.87      open
   
   
  Node Results at 9:00:00 hrs:
  ----------------------------------------------
                     Demand      Head  Pressure
  Node                 m3/h         m         m
  ----------------------------------------------
  1                  163.94    168.11      8.11
  2                  163.94    194.46     44.46
  3                  321.65    150.05      0.05
  4                  196.73    185.46     30.46
  5                  297.14    160.08      0.08
  6                  541.01    176.60     11.60
  7                -1684.41    210.00      0.00  Reservoir
   
   
  Link Results at 9:00:00 hrs:
  ------------------------------------
                       Flow     State
  Link                 m3/h          
  ------------------------------------
  1                  265.52      open
  2                  101.58      open
  3                 1254.95      open
  4                  146.12      open
  5                   73.95      open
  6                  912.10      open
  7                  371.09      open
  8                 1684.41      open
   
   
  Node Results at 10:00:00 hrs:
  ----------------------------------------------
                     Demand      Head  Pressure
  Node                 m3/h         m         m
  ----------------------------------------------
  1                  151.30    170.29     10.29
  2                  151.30    195.51     45.51
  3                  336.50    150.07      0.07
  4                  181.56    187.06     32.06
  5                  302.59    161.37      1.37
  6                  499.28    178.76     13.76
  7                -1622.52    210.00      0.00  Reservoir
   
   
  Link Results at 10:00:00 hrs:
  ------------------------------------
                       Flow     State
  Link                 m3/h          
  ------------------------------------
  1                  259.28      open
  2                  107.98      open
  3                 1211.94      open
  4                  149.63      open
  5                   78.89      open
  6                  880.76      open
  7                  381.48      open
  8                 1622.52      open
   
   
  Node Results at 11:00:00 hrs:
  ----------------------------------------------
                     Demand      Head  Pressure
  Node                 m3/h         m         m
  ----------------------------------------------
  1                  141.34    172.17     12.17
  2                  141.34    196.56     46.56
  3                  356.46    150.09      0.09
  4                  169.61    188.75     33.75
  5                  282.69    164.51      4.51
  6                  466.43    181.16     16.16
  7                -1557.88    210.00      0.00  Reservoir
   
   
  Link Results at 11:00:00 hrs:
  ------------------------------------
                       Flow     State
  Link                 m3/h          
  ------------------------------------
  1                  254.60      open
  2                  113.26      open
  3                 1161.93      open
  4                  153.23      open
  5                   89.97      open
  6                  839.09      open
  7                  372.66      open
  8                 1557.88      open
   
   
  Node Results at 12:00:00 hrs:
  ----------------------------------------------
                     Demand      Head  Pressure
  Node                 m3/h         m         m
  ----------------------------------------------
  1                  115.02    182.98     22.98
  2                  115.02    200.54     50.54
  3                  310.56    166.00     16.00
  4                  138.03    195.06     40.06
  5                  230.05    177.86     17.86
  6                  379.58    189.77     24.77
  7                -1288.26    210.00      0.00  Reservoir
   
   
  Link Results at 12:00:00 hrs:
  ------------------------------------
                       Flow     State
  Link                 m3/h          
  ------------------------------------
  1                  213.28      open
  2                   98.26      open
  3                  959.95      open
  4                  131.34      open
  5                   80.96      open
  6                  690.58      open
  7                  311.00      open
  8                 1288.26      open
   
   
  Node Results at 13:00:00 hrs:
  ----------------------------------------------
                     Demand      Head  Pressure
  Node                 m3/h         m         m
  ----------------------------------------------
  1                  100.73    188.87     28.87
  2                  100.73    202.60     52.60
  3                  271.97    175.59     25.59
  4                  120.88    198.32     43.32
  5                  201.46    184.86     24.86
  6                  332.41    194.18     29.18
  7                -1128.18    210.00      0.00  Reservoir
   
   
  Link Results at 13:00:00 hrs:
  ------------------------------------
                       Flow     State
  Link                 m3/h          
  ------------------------------------
  1                  186.78      open
  2                   86.05      open
  3                  840.67      open
  4                  115.02      open
  5                   70.90      open
  6                  604.77      open
  7                  272.36      open
  8                 1128.18      open
   
   
  Node Results at 14:00:00 hrs:
  ----------------------------------------------
                     Demand      Head  Pressure
  Node                 m3/h         m         m
  ----------------------------------------------
  1                  102.66    188.11     28.11
  2                  102.66    202.34     52.34
  3                  277.19    174.35     24.35
  4                  123.20    197.90     42.90
  5                  205.33    183.96     23.96
  6                  338.79    193.61     28.61
  7                -1149.83    210.00      0.00  Reservoir
   
   
  Link Results at 14:00:00 hrs:
  ------------------------------------
                       Flow     State
  Link                 m3/h          
  ------------------------------------
  1                  190.37      open
  2                   87.70      open
  3                  856.80      open
  4                  117.23      open
  5                   72.26      open
  6                  616.37      open
  7                  277.58      open
  8                 1149.83      open
   
   
  Node Results at 15:00:00 hrs:
  ----------------------------------------------
                     Demand      Head  Pressure
  Node                 m3/h         m         m
  ----------------------------------------------
  1                   91.80    192.20     32.20
  2                   91.80    203.77     53.77
  3                  247.86    181.02     31.02
  4                  110.16    200.16     45.16
  5                  183.60    188.83     28.83
  6                  302.95    196.68     31.68
  7                -1028.18    210.00      0.00  Reservoir
   
   
  Link Results at 15:00:00 hrs:
  ------------------------------------
                       Flow     State
  Link                 m3/h          
  ------------------------------------
  1                  170.23      open
  2                   78.42      open
  3                  766.15      open
  4                  104.83      open
  5                   64.61      open
  6                  551.16      open
  7                  248.22      open
  8                 1028.18      open
   
   
  Node Results at 16:00:00 hrs:
  ----------------------------------------------
                     Demand      Head  Pressure
  Node                 m3/h         m         m
  ----------------------------------------------
  1                   98.07    189.89     29.89
  2                   98.07    202.96     52.96
  3                  264.78    177.25     27.25
  4                  117.68    198.88     43.88
  5                  196.14    186.08     26.08
  6                  323.62    194.95     29.95
  7                -1098.36    210.00      0.00  Reservoir
   
   
  Link Results at 16:00:00 hrs:
  ------------------------------------
                       Flow     State
  Link                 m3/h          
  ------------------------------------
  1                  181.85      open
  2                   83.78      open
  3                  818.45      open
  4                  111.98      open
  5                   69.02      open
  6                  588.78      open
  7                  265.16      open
  8                 1098.36      open
   
   
  Node Results at 17:00:00 hrs:
  ----------------------------------------------
                     Demand      Head  Pressure
  Node                 m3/h         m         m
  ----------------------------------------------
  1                   98.77    189.62     29.62
  2                   98.77    202.87     52.87
  3                  266.68    176.82     26.82
  4                  118.52    198.73     43.73
  5                  197.54    185.76     25.76
  6                  325.94    194.75     29.75
  7                -1106.21    210.00      0.00  Reservoir
   
   
  Link Results at 17:00:00 hrs:
  ------------------------------------
                       Flow     State
  Link                 m3/h          
  ------------------------------------
  1                  183.15      open
  2                   84.38      open
  3                  824.30      open
  4                  112.78      open
  5                   69.52      open
  6                  592.99      open
  7                  267.05      open
  8                 1106.21      open
   
   
  Node Results at 18:00:00 hrs:
  ----------------------------------------------
                     Demand      Head  Pressure
  Node                 m3/h         m         m
  ----------------------------------------------
  1                  112.07    184.25     24.25
  2                  112.07    200.99     50.99
  3                  302.58    168.07     18.07
  4                  134.48    195.76     40.76
  5                  224.13    179.37     19.37
  6                  369.82    190.73     25.73
  7                -1255.14    210.00      0.00  Reservoir
   
   
  Link Results at 18:00:00 hrs:
  ------------------------------------
                       Flow     State
  Link                 m3/h          
  ------------------------------------
  1                  207.80      open
  2                   95.74      open
  3                  935.27      open
  4                  127.97      open
  5                   78.88      open
  6                  672.83      open
  7                  303.01      open
  8                 1255.14      open
   
   
  Node Results at 19:00:00 hrs:
  ----------------------------------------------
                     Demand      Head  Pressure
  Node                 m3/h         m         m
  ----------------------------------------------
  1                  113.85    183.49     23.49
  2                  113.85    200.72     50.72
  3                  307.40    166.83     16.83
  4                  136.62    195.34     40.34
  5                  227.70    178.46     18.46
  6                  375.71    190.15     25.15
  7                -1275.13    210.00      0.00  Reservoir
   
   
  Link Results at 19:00:00 hrs:
  ------------------------------------
                       Flow     State
  Link                 m3/h          
  ------------------------------------
  1                  211.11      open
  2                   97.26      open
  3                  950.16      open
  4                  130.01      open
  5                   80.13      open
  6                  683.54      open
  7                  307.83      open
  8                 1275.13      open
   
   
  Node Results at 20:00:00 hrs:
  ----------------------------------------------
                     Demand      Head  Pressure
  Node                 m3/h         m         m
  ----------------------------------------------
  1                  110.09    185.09     25.09
  2                  110.09    201.28     51.28
  3                  297.23    169.43     19.43
  4                  132.10    196.23     41.23
  5                  220.17    180.37     20.37
  6                  363.29    191.35     26.35
  7                -1232.97    210.00      0.00  Reservoir
   
   
  Link Results at 20:00:00 hrs:
  ------------------------------------
                       Flow     State
  Link                 m3/h          
  ------------------------------------
  1                  204.13      open
  2                   94.04      open
  3                  918.75      open
  4                  125.71      open
  5                   77.48      open
  6                  660.94      open
  7                  297.66      open
  8                 1232.97      open
   
   
  Node Results at 21:00:00 hrs:
  ----------------------------------------------
                     Demand      Head  Pressure
  Node                 m3/h         m         m
  ----------------------------------------------
  1                  135.10    173.60     13.60
  2                  135.10    197.26     47.26
  3                  364.77    150.73      0.73
  4                  162.12    189.88     34.88
  5                  270.20    166.71      6.71
  6                  445.82    182.75     17.75
  7                -1513.10    210.00      0.00  Reservoir
   
   
  Link Results at 21:00:00 hrs:
  ------------------------------------
                       Flow     State
  Link                 m3/h          
  ------------------------------------
  1                  250.51      open
  2                  115.41      open
  3                 1127.49      open
  4                  154.27      open
  5                   95.09      open
  6                  811.11      open
  7                  365.28      open
  8                 1513.10      open
   
   
  Node Results at 22:00:00 hrs:
  ----------------------------------------------
                     Demand      Head  Pressure
  Node                 m3/h         m         m
  ----------------------------------------------
  1                  136.74    173.05     13.05
  2                  136.74    197.04     47.04
  3                  365.22    150.10      0.10
  4                  164.09    189.52     34.52
  5                  273.49    165.97      5.97
  6                  451.25    182.26     17.26
  7                -1527.54    210.00      0.00  Reservoir
   
   
  Link Results at 22:00:00 hrs:
  ------------------------------------
                       Flow     State
  Link                 m3/h          
  ------------------------------------
  1                  252.37      open
  2                  115.63      open
  3                 1138.42      open
  4                  154.85      open
  5                   94.75      open
  6                  819.48      open
  7                  368.23      open
  8                 1527.54      open
   
   
  Node Results at 23:00:00 hrs:
  ----------------------------------------------
                     Demand      Head  Pressure
  Node                 m3/h         m         m
  ----------------------------------------------
  1                  114.66    183.14     23.14
  2                  114.66    200.60     50.60
  3                  309.57    166.26     16.26
  4                  137.59    195.15     40.15
  5                  229.31    178.05     18.05
  6                  378.37    189.89     24.89
  7                -1284.15    210.00      0.00  Reservoir
   
   
  Link Results at 23:00:00 hrs:
  ------------------------------------
                       Flow     State
  Link                 m3/h          
  ------------------------------------
  1                  212.60      open
  2                   97.95      open
  3                  956.89      open
  4                  130.93      open
  5                   80.70      open
  6                  688.38      open
  7                  310.01      open
  8                 1284.15      open
   
   
  Node Results at 24:00:00 hrs:
  ----------------------------------------------
                     Demand      Head  Pressure
  Node                 m3/h         m         m
  ----------------------------------------------
  1                  102.26    188.27     28.27
  2                  102.26    202.40     52.40
  3                  276.09    174.61     24.61
  4                  122.71    197.99     42.99
  5                  204.51    184.15     24.15
  6                  337.45    193.73     28.73
  7                -1145.28    210.00      0.00  Reservoir
   
   
  Link Results at 24:00:00 hrs:
  ------------------------------------
                       Flow     State
  Link                 m3/h          
  ------------------------------------
  1                  189.61      open
  2                   87.36      open
  3                  853.41      open
  4                  116.77      open
  5                   71.97      open
  6                  613.93      open
  7                  276.48      open
  8                 1145.28      open
   
   
  Node Results at 25:00:00 hrs:
  ----------------------------------------------
                     Demand      Head  Pressure
  Node                 m3/h         m         m
  ----------------------------------------------
  1                   54.76    203.16     43.16
  2                   54.76    207.61     57.61
  3                  147.86    198.87     48.87
  4                   65.72    206.22     51.22
  5                  109.53    201.87     41.87
  6                  180.72    204.88     39.88
  7                 -613.36    210.00      0.00  Reservoir
   
   
  Link Results at 25:00:00 hrs:
  ------------------------------------
                       Flow     State
  Link                 m3/h          
  ------------------------------------
  1                  101.55      open
  2                   46.78      open
  3                  457.05      open
  4                   62.54      open
  5                   38.54      open
  6                  328.80      open
  7                  148.07      open
  8                  613.36      open
   
   
  Node Results at 26:00:00 hrs:
  ----------------------------------------------
                     Demand      Head  Pressure
  Node                 m3/h         m         m
  ----------------------------------------------
  1                   50.14    204.19     44.19
  2                   50.14    207.97     57.97
  3                  135.37    200.55     50.55
  4                   60.16    206.79     51.79
  5                  100.27    203.10     43.10
  6                  165.45    205.65     40.65
  7                 -561.54    210.00      0.00  Reservoir
   
   
  Link Results at 26:00:00 hrs:
  ------------------------------------
                       Flow     State
  Link                 m3/h          
  ------------------------------------
  1                   92.97      open
  2                   42.83      open
  3                  418.43      open
  4                   57.25      open
  5                   35.29      open
  6                  301.02      open
  7                  135.56      open
  8                  561.54      open
   
   
  Node Results at 27:00:00 hrs:
  ----------------------------------------------
                     Demand      Head  Pressure
  Node                 m3/h         m         m
  ----------------------------------------------
  1                   39.55    206.26     46.26
  2                   39.55    208.69     58.69
  3                  106.79    203.91     53.91
  4                   47.46    207.93     52.93
  5                   79.10    205.55     45.55
  6                  130.52    207.20     42.20
  7                 -442.97    210.00      0.00  Reservoir
   
   
  Link Results at 27:00:00 hrs:
  ------------------------------------
                       Flow     State
  Link                 m3/h          
  ------------------------------------
  1                   73.34      open
  2                   33.79      open
  3                  330.08      open
  4                   45.16      open
  5                   27.84      open
  6                  237.46      open
  7                  106.94      open
  8                  442.97      open
   
   
  Node Results at 28:00:00 hrs:
  ----------------------------------------------
                     Demand      Head  Pressure
  Node                 m3/h         m         m
  ----------------------------------------------
  1                   32.76    207.36     47.36
  2                   32.76    209.08     59.08
  3                   88.45    205.70     55.70
  4                   39.31    208.54     53.54
  5                   65.52    206.86     46.86
  6                  108.10    208.02     43.02
  7                 -366.90    210.00      0.00  Reservoir
   
   
  Link Results at 28:00:00 hrs:
  ------------------------------------
                       Flow     State
  Link                 m3/h          
  ------------------------------------
  1                   60.74      open
  2                   27.99      open
  3                  273.40      open
  4                   37.41      open
  5                   23.06      open
  6                  196.68      open
  7                   88.57      open
  8                  366.90      open
   
   
  Node Results at 29:00:00 hrs:
  ----------------------------------------------
                     Demand      Head  Pressure
  Node                 m3/h         m         m
  ----------------------------------------------
  1                   43.53    205.53     45.53
  2                   43.53    208.44     58.44
  3                  117.52    202.72     52.72
  4                   52.23    207.53     52.53
  5                   87.05    204.69     44.69
  6                  143.64    206.66     41.66
  7                 -487.50    210.00      0.00  Reservoir
   
   
  Link Results at 29:00:00 hrs:
  ------------------------------------
                       Flow     State
  Link                 m3/h          
  ------------------------------------
  1                   80.71      open
  2                   37.18      open
  3                  363.26      open
  4                   49.70      open
  5                   30.64      open
  6                  261.33      open
  7                  117.69      open
  8                  487.50      open
   
   
  Node Results at 30:00:00 hrs:
  ----------------------------------------------
                     Demand      Head  Pressure
  Node                 m3/h         m         m
  ----------------------------------------------
  1                   50.46    204.12     44.12
  2                   50.46    207.94     57.94
  3                  136.26    200.43     50.43
  4                   60.56    206.75     51.75
  5                  100.93    203.01     43.01
  6                  166.53    205.60     40.60
  7                 -565.21    210.00      0.00  Reservoir
   
   
  Link Results at 30:00:00 hrs:
  ------------------------------------
                       Flow     State
  Link                 m3/h          
  ------------------------------------
  1                   93.58      open
  2                   43.11      open
  3                  421.17      open
  4                   57.63      open
  5                   35.52      open
  6                  302.98      open
  7                  136.45      open
  8                  565.21      open
   
   
  Node Results at 31:00:00 hrs:
  ----------------------------------------------
                     Demand      Head  Pressure
  Node                 m3/h         m         m
  ----------------------------------------------
  1                  122.72    179.53     19.53
  2                  122.72    199.34     49.34
  3                  331.35    160.39     10.39
  4                  147.27    193.16     38.16
  5                  245.45    173.76     13.76
  6                  404.99    187.19     22.19
  7                -1374.50    210.00      0.00  Reservoir
   
   
  Link Results at 31:00:00 hrs:
  ------------------------------------
                       Flow     State
  Link                 m3/h          
  ------------------------------------
  1                  227.56      open
  2                  104.84      open
  3                 1024.21      open
  4                  140.14      open
  5                   86.38      open
  6                  736.81      open
  7                  331.82      open
  8                 1374.50      open
   
   
  Node Results at 32:00:00 hrs:
  ----------------------------------------------
                     Demand      Head  Pressure
  Node                 m3/h         m         m
  ----------------------------------------------
  1                  151.48    170.25     10.25
  2                  151.48    195.49     45.49
  3                  336.12    150.07      0.07
  4                  181.77    187.03     32.03
  5                  302.95    161.32      1.32
  6                  499.88    178.72     13.72
  7                -1623.68    210.00      0.00  Reservoir
   
   
  Link Results at 32:00:00 hrs:
  ------------------------------------
                       Flow     State
  Link                 m3/h          
  ------------------------------------
  1                  259.36      open
  2                  107.88      open
  3                 1212.84      open
  4                  149.56      open
  5                   78.68      open
  6                  881.51      open
  7                  381.63      open
  8                 1623.68      open
   
   
  Node Results at 33:00:00 hrs:
  ----------------------------------------------
                     Demand      Head  Pressure
  Node                 m3/h         m         m
  ----------------------------------------------
  1                  140.98    172.24     12.24
  2                  140.98    196.59     46.59
  3                  357.15    150.09      0.09
  4                  169.18    188.81     33.81
  5                  281.97    164.62      4.62
  6                  465.25    181.25     16.25
  7                -1555.52    210.00      0.00  Reservoir
   
   
  Link Results at 33:00:00 hrs:
  ------------------------------------
                       Flow     State
  Link                 m3/h          
  ------------------------------------
  1                  254.43      open
  2                  113.44      open
  3                 1160.11      open
  4                  153.36      open
  5                   90.35      open
  6                  837.57      open
  7                  372.32      open
  8                 1555.52      open
   
   
  Node Results at 34:00:00 hrs:
  ----------------------------------------------
                     Demand      Head  Pressure
  Node                 m3/h         m         m
  ----------------------------------------------
  1                  146.87    171.12     11.12
  2                  146.87    195.97     45.97
  3                  345.55    150.08      0.08
  4                  176.24    187.81     32.81
  5                  293.74    162.76      2.76
  6                  484.67    179.83     14.83
  7                -1593.94    210.00      0.00  Reservoir
   
   
  Link Results at 34:00:00 hrs:
  ------------------------------------
                       Flow     State
  Link                 m3/h          
  ------------------------------------
  1                  257.22      open
  2                  110.35      open
  3                 1189.85      open
  4                  151.24      open
  5                   83.96      open
  6                  862.36      open
  7                  377.69      open
  8                 1593.94      open
   
   
  Node Results at 35:00:00 hrs:
  ----------------------------------------------
                     Demand      Head  Pressure
  Node                 m3/h         m         m
  ----------------------------------------------
  1                  131.22    175.51     15.51
  2                  131.22    197.93     47.93
  3                  354.29    153.84      3.84
  4                  157.46    190.93     35.93
  5                  262.44    168.98      8.98
  6                  433.02    184.18     19.18
  7                -1469.66    210.00      0.00  Reservoir
   
   
  Link Results at 35:00:00 hrs:
  ------------------------------------
                       Flow     State
  Link                 m3/h          
  ------------------------------------
  1                  243.32      open
  2                  112.10      open
  3                 1095.12      open
  4                  149.84      open
  5                   92.36      open
  6                  787.82      open
  7                  354.80      open
  8                 1469.66      open
   
   
  Node Results at 36:00:00 hrs:
  ----------------------------------------------
                     Demand      Head  Pressure
  Node                 m3/h         m         m
  ----------------------------------------------
  1                  118.12    181.62     21.62
  2                  118.12    200.07     50.07
  3                  318.92    163.78     13.78
  4                  141.74    194.31     39.31
  5                  236.24    176.24     16.24
  6                  389.80    188.75     23.75
  7                -1322.94    210.00      0.00  Reservoir
   
   
  Link Results at 36:00:00 hrs:
  ------------------------------------
                       Flow     State
  Link                 m3/h          
  ------------------------------------
  1                  219.03      open
  2                  100.91      open
  3                  985.80      open
  4                  134.88      open
  5                   83.14      open
  6                  709.17      open
  7                  319.38      open
  8                 1322.94      open
   
   
  Node Results at 37:00:00 hrs:
  ----------------------------------------------
                     Demand      Head  Pressure
  Node                 m3/h         m         m
  ----------------------------------------------
  1                  107.21    186.28     26.28
  2                  107.21    201.70     51.70
  3                  289.48    171.37     21.37
  4                  128.66    196.88     41.88
  5                  214.43    181.78     21.78
  6                  353.81    192.24     27.24
  7                -1200.80    210.00      0.00  Reservoir
   
   
  Link Results at 37:00:00 hrs:
  ------------------------------------
                       Flow     State
  Link                 m3/h          
  ------------------------------------
  1                  198.81      open
  2                   91.59      open
  3                  894.78      open
  4                  122.43      open
  5                   75.46      open
  6                  643.70      open
  7                  289.89      open
  8                 1200.80      open
   
   
  Node Results at 38:00:00 hrs:
  ----------------------------------------------
                     Demand      Head  Pressure
  Node                 m3/h         m         m
  ----------------------------------------------
  1                   97.68    190.04     30.04
  2                   97.68    203.01     53.01
  3                  263.73    177.49     27.49
  4                  117.21    198.96     43.96
  5                  195.35    186.26     26.26
  6                  322.33    195.06     30.06
  7                -1093.97    210.00      0.00  Reservoir
   
   
  Link Results at 38:00:00 hrs:
  ------------------------------------
                       Flow     State
  Link                 m3/h          
  ------------------------------------
  1                  181.12      open
  2                   83.44      open
  3                  815.18      open
  4                  111.54      open
  5                   68.75      open
  6                  586.43      open
  7                  264.10      open
  8                 1093.97      open
   
   
  Node Results at 39:00:00 hrs:
  ----------------------------------------------
                     Demand      Head  Pressure
  Node                 m3/h         m         m
  ----------------------------------------------
  1                   88.37    193.42     33.42
  2                   88.37    204.20     54.20
  3                  238.59    183.00     33.00
  4                  106.04    200.83     45.83
  5                  176.74    190.28     30.28
  6                  291.61    197.59     32.59
  7                 -989.72    210.00      0.00  Reservoir
   
   
  Link Results at 39:00:00 hrs:
  ------------------------------------
                       Flow     State
  Link                 m3/h          
  ------------------------------------
  1                  163.86      open
  2                   75.49      open
  3                  737.49      open
  4                  100.91      open
  5                   62.20      open
  6                  530.54      open
  7                  238.93      open
  8                  989.72      open
   
   
  Node Results at 40:00:00 hrs:
  ----------------------------------------------
                     Demand      Head  Pressure
  Node                 m3/h         m         m
  ----------------------------------------------
  1                   84.34    194.79     34.79
  2                   84.34    204.68     54.68
  3                  227.71    185.23     35.23
  4                  101.21    201.59     46.59
  5                  168.68    191.91     31.91
  6                  278.31    198.61     33.61
  7                 -944.58    210.00      0.00  Reservoir
   
   
  Link Results at 40:00:00 hrs:
  ------------------------------------
                       Flow     State
  Link                 m3/h          
  ------------------------------------
  1                  156.39      open
  2                   72.05      open
  3                  703.86      open
  4                   96.30      open
  5                   59.36      open
  6                  506.35      open
  7                  228.04      open
  8                  944.58      open
   
   
  Node Results at 41:00:00 hrs:
  ----------------------------------------------
                     Demand      Head  Pressure
  Node                 m3/h         m         m
  ----------------------------------------------
  1                   91.48    192.32     32.32
  2                   91.48    203.81     53.81
  3                  247.00    181.21     31.21
  4                  109.78    200.22     45.22
  5                  182.96    188.97     28.97
  6                  301.88    196.76     31.76
  7                -1024.58    210.00      0.00  Reservoir
   
   
  Link Results at 41:00:00 hrs:
  ------------------------------------
                       Flow     State
  Link                 m3/h          
  ------------------------------------
  1                  169.63      open
  2                   78.15      open
  3                  763.47      open
  4                  104.46      open
  5                   64.39      open
  6                  549.23      open
  7                  247.35      open
  8                 1024.58      open
   
   
  Node Results at 42:00:00 hrs:
  ----------------------------------------------
                     Demand      Head  Pressure
  Node                 m3/h         m         m
  ----------------------------------------------
  1                   98.74    189.63     29.63
  2                   98.74    202.87     52.87
  3                  266.59    176.84     26.84
  4                  118.49    198.74     43.74
  5                  197.48    185.78     25.78
  6                  325.84    194.75     29.75
  7                -1105.87    210.00      0.00  Reservoir
   
   
  Link Results at 42:00:00 hrs:
  ------------------------------------
                       Flow     State
  Link                 m3/h          
  ------------------------------------
  1                  183.09      open
  2                   84.35      open
  3                  824.05      open
  4                  112.75      open
  5                   69.50      open
  6                  592.81      open
  7                  266.97      open
  8                 1105.87      open
   
   
  Node Results at 43:00:00 hrs:
  ----------------------------------------------
                     Demand      Head  Pressure
  Node                 m3/h         m         m
  ----------------------------------------------
  1                  134.05    174.12     14.12
  2                  134.05    197.45     47.45
  3                  361.92    151.58      1.58
  4                  160.85    190.17     35.17
  5                  268.09    167.33      7.33
  6                  442.35    183.14     18.14
  7                -1501.31    210.00      0.00  Reservoir
   
   
  Link Results at 43:00:00 hrs:
  ------------------------------------
                       Flow     State
  Link                 m3/h          
  ------------------------------------
  1                  248.56      open
  2                  114.51      open
  3                 1118.71      open
  4                  153.07      open
  5                   94.35      open
  6                  804.79      open
  7                  362.44      open
  8                 1501.31      open
   
   
  Node Results at 44:00:00 hrs:
  ----------------------------------------------
                     Demand      Head  Pressure
  Node                 m3/h         m         m
  ----------------------------------------------
  1                  126.02    178.00     18.00
  2                  126.02    198.80     48.80
  3                  340.27    157.89      7.89
  4                  151.23    192.31     37.31
  5                  252.05    171.94     11.94
  6                  415.88    186.04     21.04
  7                -1411.48    210.00      0.00  Reservoir
   
   
  Link Results at 44:00:00 hrs:
  ------------------------------------
                       Flow     State
  Link                 m3/h          
  ------------------------------------
  1                  233.68      open
  2                  107.66      open
  3                 1051.77      open
  4                  143.91      open
  5                   88.70      open
  6                  756.63      open
  7                  340.75      open
  8                 1411.48      open
   
   
  Node Results at 45:00:00 hrs:
  ----------------------------------------------
                     Demand      Head  Pressure
  Node                 m3/h         m         m
  ----------------------------------------------
  1                  126.58    177.74     17.74
  2                  126.58    198.71     48.71
  3                  341.77    157.46      7.46
  4                  151.90    192.16     37.16
  5                  253.17    171.62     11.62
  6                  417.72    185.85     20.85
  7                -1417.73    210.00      0.00  Reservoir
   
   
  Link Results at 45:00:00 hrs:
  ------------------------------------
                       Flow     State
  Link                 m3/h          
  ------------------------------------
  1                  234.72      open
  2                  108.14      open
  3                 1056.43      open
  4                  144.54      open
  5                   89.09      open
  6                  759.98      open
  7                  342.26      open
  8                 1417.73      open
   
   
  Node Results at 46:00:00 hrs:
  ----------------------------------------------
                     Demand      Head  Pressure
  Node                 m3/h         m         m
  ----------------------------------------------
  1                  120.23    180.67     20.67
  2                  120.23    199.74     49.74
  3                  324.62    162.24     12.24
  4                  144.27    193.78     38.78
  5                  240.46    175.12     15.12
  6                  396.75    188.04     23.04
  7                -1346.56    210.00      0.00  Reservoir
   
   
  Link Results at 46:00:00 hrs:
  ------------------------------------
                       Flow     State
  Link                 m3/h          
  ------------------------------------
  1                  222.94      open
  2                  102.71      open
  3                 1003.39      open
  4                  137.29      open
  5                   84.62      open
  6                  721.83      open
  7                  325.08      open
  8                 1346.56      open
   
   
  Node Results at 47:00:00 hrs:
  ----------------------------------------------
                     Demand      Head  Pressure
  Node                 m3/h         m         m
  ----------------------------------------------
  1                  125.60    178.20     18.20
  2                  125.60    198.87     48.87
  3                  339.11    158.22      8.22
  4                  150.72    192.42     37.42
  5                  251.20    172.18     12.18
  6                  414.47    186.19     21.19
  7                -1406.70    210.00      0.00  Reservoir
   
   
  Link Results at 47:00:00 hrs:
  ------------------------------------
                       Flow     State
  Link                 m3/h          
  ------------------------------------
  1                  232.89      open
  2                  107.30      open
  3                 1048.21      open
  4                  143.42      open
  5                   88.40      open
  6                  754.07      open
  7                  339.60      open
  8                 1406.70      open
   
   
  Node Results at 48:00:00 hrs:
  ----------------------------------------------
                     Demand      Head  Pressure
  Node                 m3/h         m         m
  ----------------------------------------------
  1                   81.29    195.79     35.79
  2                   81.29    205.03     55.03
  3                  219.47    186.87     36.87
  4                   97.54    202.15     47.15
  5                  162.57    193.10     33.10
  6                  268.24    199.37     34.37
  7                 -910.39    210.00      0.00  Reservoir
   
   
  Link Results at 48:00:00 hrs:
  ------------------------------------
                       Flow     State
  Link                 m3/h          
  ------------------------------------
  1                  150.73      open
  2                   69.44      open
  3                  678.38      open
  4                   92.82      open
  5                   57.21      open
  6                  488.02      open
  7                  219.78      open
  8                  910.39      open
   
   
  Node Results at 49:00:00 hrs:
  ----------------------------------------------
                     Demand      Head  Pressure
  Node                 m3/h         m         m
  ----------------------------------------------
  1                   59.23    202.09     42.09
  2                   59.23    207.23     57.23
  3                  159.93    197.13     47.13
  4                   71.08    205.63     50.63
  5                  118.47    200.60     40.60
  6                  195.47    204.08     39.08
  7                 -663.42    210.00      0.00  Reservoir
   
   
  Link Results at 49:00:00 hrs:
  ------------------------------------
                       Flow     State
  Link                 m3/h          
  ------------------------------------
  1                  109.84      open
  2                   50.60      open
  3                  494.35      open
  4                   67.64      open
  5                   41.69      open
  6                  355.63      open
  7                  160.16      open
  8                  663.42      open
   
   
  Node Results at 50:00:00 hrs:
  ----------------------------------------------
                     Demand      Head  Pressure
  Node                 m3/h         m         m
  ----------------------------------------------
  1                   47.31    204.79     44.79
  2                   47.31    208.18     58.18
  3                  127.75    201.51     51.51
  4                   56.78    207.12     52.12
  5                   94.63    203.80     43.80
  6                  156.14    206.10     41.10
  7                 -529.91    210.00      0.00  Reservoir
   
   
  Link Results at 50:00:00 hrs:
  ------------------------------------
                       Flow     State
  Link                 m3/h          
  ------------------------------------
  1                   87.73      open
  2                   40.42      open
  3                  394.87      open
  4                   54.03      open
  5                   33.30      open
  6                  284.06      open
  7                  127.93      open
  8                  529.91      open
   
   
  Node Results at 51:00:00 hrs:
  ----------------------------------------------
                     Demand      Head  Pressure
  Node                 m3/h         m         m
  ----------------------------------------------
  1                   40.93    206.01     46.01
  2                   40.93    208.60     58.60
  3                  110.51    203.51     53.51
  4                   49.11    207.80     52.80
  5                   81.86    205.26     45.26
  6                  135.06    207.02     42.02
  7                 -458.40    210.00      0.00  Reservoir
   
   
  Link Results at 51:00:00 hrs:
  ------------------------------------
                       Flow     State
  Link                 m3/h          
  ------------------------------------
  1                   75.89      open
  2                   34.96      open
  3                  341.58      open
  4                   46.74      open
  5                   28.81      open
  6                  245.73      open
  7                  110.66      open
  8                  458.40      open
   
   
  Node Results at 52:00:00 hrs:
  ----------------------------------------------
                     Demand      Head  Pressure
  Node                 m3/h         m         m
  ----------------------------------------------
  1                   29.08    207.88     47.88
  2                   29.08    209.26     59.26
  3                   78.52    206.55     56.55
  4                   34.90    208.83     53.83
  5                   58.16    207.48     47.48
  6                   95.97    208.42     43.42
  7                 -325.70    210.00      0.00  Reservoir
   
   
  Link Results at 52:00:00 hrs:
  ------------------------------------
                       Flow     State
  Link                 m3/h          
  ------------------------------------
  1                   53.92      open
  2                   24.84      open
  3                  242.70      open
  4                   33.21      open
  5                   20.47      open
  6                  174.60      open
  7                   78.63      open
  8                  325.70      open
   
   
  Node Results at 53:00:00 hrs:
  ----------------------------------------------
                     Demand      Head  Pressure
  Node                 m3/h         m         m
  ----------------------------------------------
  1                   37.17    206.67     46.67
  2                   37.17    208.83     58.83
  3                  100.35    204.57     54.57
  4                   44.60    208.16     53.16
  5                   74.33    206.03     46.03
  6                  122.65    207.50     42.50
  7                 -416.27    210.00      0.00  Reservoir
   
   
  Link Results at 53:00:00 hrs:
  ------------------------------------
                       Flow     State
  Link                 m3/h          
  ------------------------------------
  1                   68.92      open
  2                   31.75      open
  3                  310.18      open
  4                   42.44      open
  5                   26.16      open
  6                  223.14      open
  7                  100.49      open
  8                  416.27      open
   
   
  Node Results at 54:00:00 hrs:
  ----------------------------------------------
                     Demand      Head  Pressure
  Node                 m3/h         m         m
  ----------------------------------------------
  1                   49.92    204.24     44.24
  2                   49.92    207.99     57.99
  3                  134.77    200.62     50.62
  4                   59.90    206.82     51.82
  5                   99.83    203.15     43.15
  6                  164.72    205.69     40.69
  7                 -559.05    210.00      0.00  Reservoir
   
   
  Link Results at 54:00:00 hrs:
  ------------------------------------
                       Flow     State
  Link                 m3/h          
  ------------------------------------
  1                   92.56      open
  2                   42.64      open
  3                  416.58      open
  4                   57.00      open
  5                   35.13      open
  6                  299.68      open
  7                  134.96      open
  8                  559.05      open
   
   
  Node Results at 55:00:00 hrs:
  ----------------------------------------------
                     Demand      Head  Pressure
  Node                 m3/h         m         m
  ----------------------------------------------
  1                  123.08    179.37     19.37
  2                  123.08    199.28     49.28
  3                  332.33    160.12     10.12
  4                  147.70    193.06     38.06
  5                  246.17    173.57     13.57
  6                  406.18    187.07     22.07
  7                -1378.54    210.00      0.00  Reservoir
   
   
  Link Results at 55:00:00 hrs:
  ------------------------------------
                       Flow     State
  Link                 m3/h          
  ------------------------------------
  1                  228.23      open
  2                  105.15      open
  3                 1027.23      open
  4                  140.55      open
  5                   86.63      open
  6                  738.98      open
  7                  332.80      open
  8                 1378.54      open
   
   
  Node Results at 56:00:00 hrs:
  ----------------------------------------------
                     Demand      Head  Pressure
  Node                 m3/h         m         m
  ----------------------------------------------
  1                  160.64    168.65      8.65
  2                  160.64    194.70     44.70
  3                  324.06    150.06      0.06
  4                  192.77    185.81     30.81
  5                  302.46    160.09      0.09
  6                  530.11    177.05     12.05
  7                -1670.68    210.00      0.00  Reservoir
   
   
  Link Results at 56:00:00 hrs:
  ------------------------------------
                       Flow     State
  Link                 m3/h          
  ------------------------------------
  1                  263.85      open
  2                  103.21      open
  3                 1246.19      open
  4                  146.89      open
  5                   73.96      open
  6                  906.53      open
  7                  376.43      open
  8                 1670.68      open
   
   
  Node Results at 57:00:00 hrs:
  ----------------------------------------------
                     Demand      Head  Pressure
  Node                 m3/h         m         m
  ----------------------------------------------
  1                  162.90    168.28      8.28
  2                  162.90    194.54     44.54
  3                  322.41    150.05      0.05
  4                  195.48    185.57     30.57
  5                  298.82    160.08      0.08
  6                  537.58    176.74     11.74
  7                -1680.11    210.00      0.00  Reservoir
   
   
  Link Results at 57:00:00 hrs:
  ------------------------------------
                       Flow     State
  Link                 m3/h          
  ------------------------------------
  1                  265.00      open
  2                  102.09      open
  3                 1252.20      open
  4                  146.36      open
  5                   73.95      open
  6                  910.35      open
  7                  372.77      open
  8                 1680.11      open
   
   
  Node Results at 58:00:00 hrs:
  ----------------------------------------------
                     Demand      Head  Pressure
  Node                 m3/h         m         m
  ----------------------------------------------
  1                  144.29    171.61     11.61
  2                  144.29    196.25     46.25
  3                  350.69    150.08      0.08
  4                  173.15    188.25     33.25
  5                  288.58    163.58      3.58
  6                  476.16    180.45     15.45
  7                -1577.17    210.00      0.00  Reservoir
   
   
  Link Results at 58:00:00 hrs:
  ------------------------------------
                       Flow     State
  Link                 m3/h          
  ------------------------------------
  1                  256.01      open
  2                  111.71      open
  3                 1176.87      open
  4                  152.17      open
  5                   86.81      open
  6                  851.55      open
  7                  375.39      open
  8                 1577.17      open
   
   
  Node Results at 59:00:00 hrs:
  ----------------------------------------------
                     Demand      Head  Pressure
  Node                 m3/h         m         m
  ----------------------------------------------
  1                  127.17    177.46     17.46
  2                  127.17    198.61     48.61
  3                  343.36    157.01      7.01
  4                  152.60    192.01     37.01
  5                  254.34    171.29     11.29
  6                  419.66    185.64     20.64
  7                -1424.31    210.00      0.00  Reservoir
   
   
  Link Results at 59:00:00 hrs:
  ------------------------------------
                       Flow     State
  Link                 m3/h          
  ------------------------------------
  1                  235.81      open
  2                  108.64      open
  3                 1061.33      open
  4                  145.22      open
  5                   89.51      open
  6                  763.51      open
  7                  343.85      open
  8                 1424.31      open
   
   
  Node Results at 60:00:00 hrs:
  ----------------------------------------------
                     Demand      Head  Pressure
  Node                 m3/h         m         m
  ----------------------------------------------
  1                  105.56    186.95     26.95
  2                  105.56    201.93     51.93
  3                  285.02    172.47     22.47
  4                  126.67    197.26     42.26
  5                  211.12    182.58     22.58
  6                  348.35    192.75     27.75
  7                -1182.29    210.00      0.00  Reservoir
   
   
  Link Results at 60:00:00 hrs:
  ------------------------------------
                       Flow     State
  Link                 m3/h          
  ------------------------------------
  1                  195.74      open
  2                   90.18      open
  3                  880.99      open
  4                  120.54      open
  5                   74.30      open
  6                  633.78      open
  7                  285.42      open
  8                 1182.29      open
   
   
  Node Results at 61:00:00 hrs:
  ----------------------------------------------
                     Demand      Head  Pressure
  Node                 m3/h         m         m
  ----------------------------------------------
  1                   97.84    189.97     29.97
  2                   97.84    202.99     52.99
  3                  264.18    177.39     27.39
  4                  117.41    198.93     43.93
  5                  195.69    186.18     26.18
  6                  322.88    195.01     30.01
  7                -1095.84    210.00      0.00  Reservoir
   
   
  Link Results at 61:00:00 hrs:
  ------------------------------------
                       Flow     State
  Link                 m3/h          
  ------------------------------------
  1                  181.43      open
  2                   83.58      open
  3                  816.57      open
  4                  111.73      open
  5                   68.86      open
  6                  587.43      open
  7                  264.55      open
  8                 1095.84      open
   
   
  Node Results at 62:00:00 hrs:
  ----------------------------------------------
                     Demand      Head  Pressure
  Node                 m3/h         m         m
  ----------------------------------------------
  1                   95.12    190.99     30.99
  2                   95.12    203.35     53.35
  3                  256.83    179.05     29.05
  4                  114.15    199.49     44.49
  5                  190.24    187.39     27.39
  6                  313.90    195.77     30.77
  7                -1065.36    210.00      0.00  Reservoir
   
   
  Link Results at 62:00:00 hrs:
  ------------------------------------
                       Flow     State
  Link                 m3/h          
  ------------------------------------
  1                  176.38      open
  2                   81.26      open
  3                  793.85      open
  4                  108.62      open
  5                   66.95      open
  6                  571.09      open
  7                  257.19      open
  8                 1065.36      open
   
   
  Node Results at 63:00:00 hrs:
  ----------------------------------------------
                     Demand      Head  Pressure
  Node                 m3/h         m         m
  ----------------------------------------------
  1                   80.68    195.99     35.99
  2                   80.68    205.10     55.10
  3                  217.83    187.19     37.19
  4                   96.81    202.25     47.25
  5                  161.36    193.34     33.34
  6                  266.24    199.51     34.51
  7                 -903.60    210.00      0.00  Reservoir
   
   
  Link Results at 63:00:00 hrs:
  ------------------------------------
                       Flow     State
  Link                 m3/h          
  ------------------------------------
  1                  149.60      open
  2                   68.92      open
  3                  673.32      open
  4                   92.13      open
  5                   56.78      open
  6                  484.38      open
  7                  218.14      open
  8                  903.60      open
   
   
  Node Results at 64:00:00 hrs:
  ----------------------------------------------
                     Demand      Head  Pressure
  Node                 m3/h         m         m
  ----------------------------------------------
  1                   90.96    192.51     32.51
  2                   90.96    203.88     53.88
  3                  245.59    181.51     31.51
  4                  109.15    200.33     45.33
  5                  181.92    189.19     29.19
  6                  300.16    196.90     31.90
  7                -1018.73    210.00      0.00  Reservoir
   
   
  Link Results at 64:00:00 hrs:
  ------------------------------------
                       Flow     State
  Link                 m3/h          
  ------------------------------------
  1                  168.66      open
  2                   77.70      open
  3                  759.11      open
  4                  103.86      open
  5                   64.02      open
  6                  546.10      open
  7                  245.94      open
  8                 1018.73      open
   
   
  Node Results at 65:00:00 hrs:
  ----------------------------------------------
                     Demand      Head  Pressure
  Node                 m3/h         m         m
  ----------------------------------------------
  1                   97.59    190.07     30.07
  2                   97.59    203.03     53.03
  3                  263.49    177.55     27.55
  4                  117.11    198.98     43.98
  5                  195.18    186.30     26.30
  6                  322.04    195.08     30.08
  7                -1093.00    210.00      0.00  Reservoir
   
   
  Link Results at 65:00:00 hrs:
  ------------------------------------
                       Flow     State
  Link                 m3/h          
  ------------------------------------
  1                  180.96      open
  2                   83.37      open
  3                  814.45      open
  4                  111.44      open
  5                   68.69      open
  6                  585.91      open
  7                  263.86      open
  8                 1093.00      open
   
   
  Node Results at 66:00:00 hrs:
  ----------------------------------------------
                     Demand      Head  Pressure
  Node                 m3/h         m         m
  ----------------------------------------------
  1                   99.24    189.44     29.44
  2                   99.24    202.81     52.81
  3                  267.95    176.52     26.52
  4                  119.09    198.63     43.63
  5                  198.48    185.55     25.55
  6                  327.49    194.61     29.61
  7                -1111.50    210.00      0.00  Reservoir
   
   
  Link Results at 66:00:00 hrs:
  ------------------------------------
                       Flow     State
  Link                 m3/h          
  ------------------------------------
  1                  184.02      open
  2                   84.78      open
  3                  828.24      open
  4                  113.32      open
  5                   69.85      open
  6                  595.82      open
  7                  268.33      open
  8                 1111.50      open
   
   
  Node Results at 67:00:00 hrs:
  ----------------------------------------------
                     Demand      Head  Pressure
  Node                 m3/h         m         m
  ----------------------------------------------
  1                  123.33    179.25     19.25
  2                  123.33    199.24     49.24
  3                  333.00    159.93      9.93
  4                  148.00    193.00     38.00
  5                  246.66    173.43     13.43
  6                  407.00    186.98     21.98
  7                -1381.32    210.00      0.00  Reservoir
   
   
  Link Results at 67:00:00 hrs:
  ------------------------------------
                       Flow     State
  Link                 m3/h          
  ------------------------------------
  1                  228.69      open
  2                  105.36      open
  3                 1029.29      open
  4                  140.83      open
  5                   86.80      open
  6                  740.46      open
  7                  333.47      open
  8                 1381.32      open
   
   
  Node Results at 68:00:00 hrs:
  ----------------------------------------------
                     Demand      Head  Pressure
  Node                 m3/h         m         m
  ----------------------------------------------
  1                  122.92    179.44     19.44
  2                  122.92    199.31     49.31
  3                  331.89    160.24     10.24
  4                  147.51    193.11     38.11
  5                  245.85    173.65     13.65
  6                  405.65    187.12     22.12
  7                -1376.74    210.00      0.00  Reservoir
   
   
  Link Results at 68:00:00 hrs:
  ------------------------------------
                       Flow     State
  Link                 m3/h          
  ------------------------------------
  1                  227.93      open
  2                  105.01      open
  3                 1025.88      open
  4                  140.37      open
  5                   86.52      open
  6                  738.01      open
  7                  332.36      open
  8                 1376.74      open
   
   
  Node Results at 69:00:00 hrs:
  ----------------------------------------------
                     Demand      Head  Pressure
  Node                 m3/h         m         m
  ----------------------------------------------
  1                  130.41    175.91     15.91
  2                  130.41    198.07     48.07
  3                  352.09    154.49      4.49
  4                  156.49    191.15     36.15
  5                  260.81    169.45      9.45
  6                  430.34    184.48     19.48
  7                -1460.54    210.00      0.00  Reservoir
   
   
  Link Results at 69:00:00 hrs:
  ------------------------------------
                       Flow     State
  Link                 m3/h          
  ------------------------------------
  1                  241.81      open
  2                  111.40      open
  3                 1088.33      open
  4                  148.91      open
  5                   91.78      open
  6                  782.93      open
  7                  352.59      open
  8                 1460.54      open
   
   
  Node Results at 70:00:00 hrs:
  ----------------------------------------------
                     Demand      Head  Pressure
  Node                 m3/h         m         m
  ----------------------------------------------
  1                  135.69    173.31     13.31
  2                  135.69    197.16     47.16
  3                  366.35    150.25      0.25
  4                  162.82    189.71     34.71
  5                  271.37    166.36      6.36
  6                  447.77    182.53     17.53
  7                -1519.69    210.00      0.00  Reservoir
   
   
  Link Results at 70:00:00 hrs:
  ------------------------------------
                       Flow     State
  Link                 m3/h          
  ------------------------------------
  1                  251.60      open
  2                  115.91      open
  3                 1132.41      open
  4                  154.94      open
  5                   95.50      open
  6                  814.64      open
  7                  366.87      open
  8                 1519.69      open
   
   
  Node Results at 71:00:00 hrs:
  ----------------------------------------------
                     Demand      Head  Pressure
  Node                 m3/h         m         m
  ----------------------------------------------
  1                  120.93    180.35     20.35
  2                  120.93    199.63     49.63
  3                  326.51    161.73     11.73
  4                  145.11    193.61     38.61
  5                  241.86    174.74     14.74
  6                  399.06    187.81     22.81
  7                -1354.40    210.00      0.00  Reservoir
   
   
  Link Results at 71:00:00 hrs:
  ------------------------------------
                       Flow     State
  Link                 m3/h          
  ------------------------------------
  1                  224.24      open
  2                  103.31      open
  3                 1009.24      open
  4                  138.09      open
  5                   85.11      open
  6                  726.04      open
  7                  326.97      open
  8                 1354.40      open
   
   
  Node Results at 72:00:00 hrs:
  ----------------------------------------------
                     Demand      Head  Pressure
  Node                 m3/h         m         m
  ----------------------------------------------
  1                   96.15    190.61     30.61
  2                   96.15    203.22     53.22
  3                  259.61    178.43     28.43
  4                  115.38    199.28     44.28
  5                  192.31    186.94     26.94
  6                  317.30    195.49     30.49
  7                -1076.91    210.00      0.00  Reservoir
   
   
  Link Results at 72:00:00 hrs:
  ------------------------------------
                       Flow     State
  Link                 m3/h          
  ------------------------------------
  1                  178.29      open
  2                   82.14      open
  3                  802.46      open
  4                  109.80      open
  5                   67.68      open
  6                  577.29      open
  7                  259.98      open
  8                 1076.91      open
   
   
  Node Results at 73:00:00 hrs:
  ----------------------------------------------
                     Demand      Head  Pressure
  Node                 m3/h         m         m
  ----------------------------------------------
  1                   55.55    202.98     42.98
  2                   55.55    207.54     57.54
  3                  150.00    198.57     48.57
  4                   66.67    206.12     51.12
  5                  111.11    201.65     41.65
  6                  183.33    204.74     39.74
  7                 -622.21    210.00      0.00  Reservoir
   
   
  Link Results at 73:00:00 hrs:
  ------------------------------------
                       Flow     State
[...]
   
  Link Results at 150:00:00 hrs:
  ------------------------------------
                       Flow     State
  Link                 m3/h          
  ------------------------------------
  1                   92.33      open
  2                   42.54      open
  3                  415.58      open
  4                   56.86      open
  5                   35.05      open
  6                  298.96      open
  7                  134.64      open
  8                  557.71      open
   
   
  Node Results at 151:00:00 hrs:
  ----------------------------------------------
                     Demand      Head  Pressure
  Node                 m3/h         m         m
  ----------------------------------------------
  1                  132.34    174.97     14.97
  2                  132.34    197.74     47.74
  3                  357.31    152.95      2.95
  4                  158.80    190.63     35.63
  5                  264.67    168.33      8.33
  6                  436.71    183.77     18.77
  7                -1482.16    210.00      0.00  Reservoir
   
   
  Link Results at 151:00:00 hrs:
  ------------------------------------
                       Flow     State
  Link                 m3/h          
  ------------------------------------
  1                  245.39      open
  2                  113.05      open
  3                 1104.44      open
  4                  151.11      open
  5                   93.14      open
  6                  794.52      open
  7                  357.81      open
  8                 1482.16      open
   
   
  Node Results at 152:00:00 hrs:
  ----------------------------------------------
                     Demand      Head  Pressure
  Node                 m3/h         m         m
  ----------------------------------------------
  1                  152.85    169.99      9.99
  2                  152.85    195.34     45.34
  3                  333.25    150.07      0.07
  4                  183.42    186.80     31.80
  5                  305.70    160.89      0.89
  6                  504.41    178.39     13.39
  7                -1632.48    210.00      0.00  Reservoir
   
   
  Link Results at 152:00:00 hrs:
  ------------------------------------
                       Flow     State
  Link                 m3/h          
  ------------------------------------
  1                  259.99      open
  2                  107.14      open
  3                 1219.64      open
  4                  149.05      open
  5                   77.06      open
  6                  887.16      open
  7                  382.76      open
  8                 1632.48      open
   
   
  Node Results at 153:00:00 hrs:
  ----------------------------------------------
                     Demand      Head  Pressure
  Node                 m3/h         m         m
  ----------------------------------------------
  1                  152.07    170.14     10.14
  2                  152.07    195.42     45.42
  3                  334.89    150.07      0.07
  4                  182.48    186.93     31.93
  5                  304.13    161.13      1.13
  6                  501.82    178.58     13.58
  7                -1627.46    210.00      0.00  Reservoir
   
   
  Link Results at 153:00:00 hrs:
  ------------------------------------
                       Flow     State
  Link                 m3/h          
  ------------------------------------
  1                  259.63      open
  2                  107.56      open
  3                 1215.76      open
  4                  149.34      open
  5                   77.99      open
  6                  883.94      open
  7                  382.12      open
  8                 1627.46      open
   
   
  Node Results at 154:00:00 hrs:
  ----------------------------------------------
                     Demand      Head  Pressure
  Node                 m3/h         m         m
  ----------------------------------------------
  1                  149.11    170.70     10.70
  2                  149.11    195.74     45.74
  3                  341.00    150.07      0.07
  4                  178.94    187.43     32.43
  5                  298.23    162.06      2.06
  6                  492.08    179.29     14.29
  7                -1608.47    210.00      0.00  Reservoir
   
   
  Link Results at 154:00:00 hrs:
  ------------------------------------
                       Flow     State
  Link                 m3/h          
  ------------------------------------
  1                  258.27      open
  2                  109.15      open
  3                 1201.08      open
  4                  150.43      open
  5                   81.42      open
  6                  871.72      open
  7                  379.64      open
  8                 1608.47      open
   
   
  Node Results at 155:00:00 hrs:
  ----------------------------------------------
                     Demand      Head  Pressure
  Node                 m3/h         m         m
  ----------------------------------------------
  1                  124.82    178.56     18.56
  2                  124.83    199.00     49.00
  3                  337.03    158.81      8.81
  4                  149.79    192.62     37.62
  5                  249.65    172.61     12.61
  6                  411.92    186.46     21.46
  7                -1398.04    210.00      0.00  Reservoir
   
   
  Link Results at 155:00:00 hrs:
  ------------------------------------
                       Flow     State
  Link                 m3/h          
  ------------------------------------
  1                  231.46      open
  2                  106.64      open
  3                 1041.75      open
  4                  142.54      open
  5                   87.86      open
  6                  749.43      open
  7                  337.51      open
  8                 1398.04      open
   
   
  Node Results at 156:00:00 hrs:
  ----------------------------------------------
                     Demand      Head  Pressure
  Node                 m3/h         m         m
  ----------------------------------------------
  1                  117.44    181.92     21.92
  2                  117.44    200.17     50.17
  3                  317.08    164.28     14.28
  4                  140.92    194.48     39.48
  5                  234.87    176.60     16.60
  6                  387.54    188.98     23.98
  7                -1315.28    210.00      0.00  Reservoir
   
   
  Link Results at 156:00:00 hrs:
  ------------------------------------
                       Flow     State
  Link                 m3/h          
  ------------------------------------
  1                  217.76      open
  2                  100.32      open
  3                  980.09      open
  4                  134.10      open
  5                   82.65      open
  6                  705.06      open
  7                  317.53      open
  8                 1315.28      open
   
   
  Node Results at 157:00:00 hrs:
  ----------------------------------------------
                     Demand      Head  Pressure
  Node                 m3/h         m         m
  ----------------------------------------------
  1                   93.52    191.58     31.58
  2                   93.52    203.56     53.56
  3                  252.51    180.01     30.01
  4                  112.22    199.82     44.82
  5                  187.04    188.09     28.09
  6                  308.62    196.21     31.21
  7                -1047.43    210.00      0.00  Reservoir
   
   
  Link Results at 157:00:00 hrs:
  ------------------------------------
                       Flow     State
  Link                 m3/h          
  ------------------------------------
  1                  173.41      open
  2                   79.89      open
  3                  780.50      open
  4                  106.79      open
  5                   65.82      open
  6                  561.48      open
  7                  252.86      open
  8                 1047.43      open
   
   
  Node Results at 158:00:00 hrs:
  ----------------------------------------------
                     Demand      Head  Pressure
  Node                 m3/h         m         m
  ----------------------------------------------
  1                   93.12    191.73     31.73
  2                   93.12    203.61     53.61
  3                  251.41    180.25     30.25
  4                  111.74    199.90     44.90
  5                  186.23    188.27     28.27
  6                  307.28    196.32     31.32
  7                -1042.89    210.00      0.00  Reservoir
   
   
  Link Results at 158:00:00 hrs:
  ------------------------------------
                       Flow     State
  Link                 m3/h          
  ------------------------------------
  1                  172.66      open
  2                   79.55      open
  3                  777.11      open
  4                  106.33      open
  5                   65.54      open
  6                  559.05      open
  7                  251.77      open
  8                 1042.89      open
   
   
  Node Results at 159:00:00 hrs:
  ----------------------------------------------
                     Demand      Head  Pressure
  Node                 m3/h         m         m
  ----------------------------------------------
  1                   87.64    193.67     33.67
  2                   87.64    204.29     54.29
  3                  236.62    183.41     33.41
  4                  105.16    200.97     45.97
  5                  175.27    190.58     30.58
  6                  289.20    197.78     32.78
  7                 -981.52    210.00      0.00  Reservoir
   
   
  Link Results at 159:00:00 hrs:
  ------------------------------------
                       Flow     State
  Link                 m3/h          
  ------------------------------------
  1                  162.50      open
  2                   74.87      open
  3                  731.38      open
  4                  100.07      open
  5                   61.68      open
  6                  526.15      open
  7                  236.95      open
  8                  981.52      open
   
   
  Node Results at 160:00:00 hrs:
  ----------------------------------------------
                     Demand      Head  Pressure
  Node                 m3/h         m         m
  ----------------------------------------------
  1                   87.31    193.78     33.78
  2                   87.31    204.33     54.33
  3                  235.74    183.59     33.59
  4                  104.77    201.03     46.03
  5                  174.62    190.71     30.71
  6                  288.13    197.86     32.86
  7                 -977.88    210.00      0.00  Reservoir
   
   
  Link Results at 160:00:00 hrs:
  ------------------------------------
                       Flow     State
  Link                 m3/h          
  ------------------------------------
  1                  161.90      open
  2                   74.59      open
  3                  728.67      open
  4                   99.70      open
  5                   61.45      open
  6                  524.20      open
  7                  236.07      open
  8                  977.88      open
   
   
  Node Results at 161:00:00 hrs:
  ----------------------------------------------
                     Demand      Head  Pressure
  Node                 m3/h         m         m
  ----------------------------------------------
  1                  111.58    184.46     24.46
  2                  111.58    201.06     51.06
  3                  301.26    168.41     18.41
  4                  133.89    195.88     40.88
  5                  223.15    179.62     19.62
  6                  368.20    190.88     25.88
  7                -1249.67    210.00      0.00  Reservoir
   
   
  Link Results at 161:00:00 hrs:
  ------------------------------------
                       Flow     State
  Link                 m3/h          
  ------------------------------------
  1                  206.90      open
  2                   95.32      open
  3                  931.19      open
  4                  127.41      open
  5                   78.53      open
  6                  669.89      open
  7                  301.69      open
  8                 1249.67      open
   
   
  Node Results at 162:00:00 hrs:
  ----------------------------------------------
                     Demand      Head  Pressure
  Node                 m3/h         m         m
  ----------------------------------------------
  1                  116.27    182.44     22.44
  2                  116.27    200.35     50.35
  3                  313.92    165.12     15.12
  4                  139.52    194.76     39.76
  5                  232.53    177.21     17.21
  6                  383.68    189.37     24.37
  7                -1302.18    210.00      0.00  Reservoir
   
   
  Link Results at 162:00:00 hrs:
  ------------------------------------
                       Flow     State
  Link                 m3/h          
  ------------------------------------
  1                  215.59      open
  2                   99.32      open
  3                  970.33      open
  4                  132.76      open
  5                   81.83      open
  6                  698.04      open
  7                  314.36      open
  8                 1302.18      open
   
   
  Node Results at 163:00:00 hrs:
  ----------------------------------------------
                     Demand      Head  Pressure
  Node                 m3/h         m         m
  ----------------------------------------------
  1                  120.63    180.49     20.49
  2                  120.63    199.67     49.67
  3                  325.70    161.95     11.95
  4                  144.76    193.68     38.68
  5                  241.26    174.90     14.90
  6                  398.08    187.91     22.91
  7                -1351.06    210.00      0.00  Reservoir
   
   
  Link Results at 163:00:00 hrs:
  ------------------------------------
                       Flow     State
  Link                 m3/h          
  ------------------------------------
  1                  223.68      open
  2                  103.05      open
  3                 1006.75      open
  4                  137.75      open
  5                   84.90      open
  6                  724.24      open
  7                  326.16      open
  8                 1351.06      open
   
   
  Node Results at 164:00:00 hrs:
  ----------------------------------------------
                     Demand      Head  Pressure
  Node                 m3/h         m         m
  ----------------------------------------------
  1                  120.44    180.57     20.57
  2                  120.44    199.70     49.70
  3                  325.19    162.09     12.09
  4                  144.53    193.73     38.73
  5                  240.88    175.00     15.00
  6                  397.46    187.97     22.97
  7                -1348.95    210.00      0.00  Reservoir
   
   
  Link Results at 164:00:00 hrs:
  ------------------------------------
                       Flow     State
  Link                 m3/h          
  ------------------------------------
  1                  223.33      open
  2                  102.89      open
  3                 1005.17      open
  4                  137.53      open
  5                   84.77      open
  6                  723.11      open
  7                  325.65      open
  8                 1348.95      open
   
   
  Node Results at 165:00:00 hrs:
  ----------------------------------------------
                     Demand      Head  Pressure
  Node                 m3/h         m         m
  ----------------------------------------------
  1                  136.59    173.08     13.08
  2                  136.59    197.05     47.05
  3                  365.52    150.10      0.10
  4                  163.90    189.54     34.54
  5                  273.17    166.02      6.02
  6                  450.73    182.29     17.29
  7                -1526.50    210.00      0.00  Reservoir
   
   
  Link Results at 165:00:00 hrs:
  ------------------------------------
                       Flow     State
  Link                 m3/h          
  ------------------------------------
  1                  252.29      open
  2                  115.71      open
  3                 1137.62      open
  4                  154.90      open
  5                   94.91      open
  6                  818.81      open
  7                  368.08      open
  8                 1526.50      open
   
   
  Node Results at 166:00:00 hrs:
  ----------------------------------------------
                     Demand      Head  Pressure
  Node                 m3/h         m         m
  ----------------------------------------------
  1                  122.20    179.77     19.77
  2                  122.20    199.42     49.42
  3                  329.94    160.78     10.78
  4                  146.64    193.29     38.29
  5                  244.40    174.05     14.05
  6                  403.25    187.37     22.37
  7                -1368.62    210.00      0.00  Reservoir
   
   
  Link Results at 166:00:00 hrs:
  ------------------------------------
                       Flow     State
  Link                 m3/h          
  ------------------------------------
  1                  226.59      open
  2                  104.39      open
  3                 1019.83      open
  4                  139.54      open
  5                   86.01      open
  6                  733.66      open
  7                  330.40      open
  8                 1368.62      open
   
   
  Node Results at 167:00:00 hrs:
  ----------------------------------------------
                     Demand      Head  Pressure
  Node                 m3/h         m         m
  ----------------------------------------------
  1                  108.88    185.59     25.59
  2                  108.88    201.46     51.46
  3                  293.97    170.26     20.26
  4                  130.65    196.51     41.51
  5                  217.76    180.97     20.97
  6                  359.30    191.73     26.73
  7                -1219.43    210.00      0.00  Reservoir
   
   
  Link Results at 167:00:00 hrs:
  ------------------------------------
                       Flow     State
  Link                 m3/h          
  ------------------------------------
  1                  201.89      open
  2                   93.01      open
  3                  908.66      open
  4                  124.33      open
  5                   76.63      open
  6                  653.68      open
  7                  294.39      open
  8                 1219.43      open
   
   
  Node Results at 168:00:00 hrs:
  ----------------------------------------------
                     Demand      Head  Pressure
  Node                 m3/h         m         m
  ----------------------------------------------
  1                   99.53    189.33     29.33
  2                   99.53    202.77     52.77
  3                  268.72    176.34     26.34
  4                  119.43    198.57     43.57
  5                  199.05    185.42     25.42
  6                  328.44    194.53     29.53
  7                -1114.69    210.00      0.00  Reservoir
   
   
  Link Results at 168:00:00 hrs:
  ------------------------------------
                       Flow     State
  Link                 m3/h          
  ------------------------------------
  1                  184.55      open
  2                   85.02      open
  3                  830.62      open
  4                  113.65      open
  5                   70.05      open
  6                  597.54      open
  7                  269.10      open
  8                 1114.69      open
   
  Analysis ended Tue Mar  7 12:01:36 2023
