  Page 1                                    Tue Mar  7 12:01:37 2023

  ******************************************************************
  *                           E P A N E T                          *
  *                   Hydraulic and Water Quality                  *
  *                   Analysis for Pipe Networks                   *
  *                         Version 2.2                            *
  ******************************************************************
  
  Analysis begun Tue Mar  7 12:01:37 2023

   
  Node Results at 0:00:00 hrs:
  ----------------------------------------------
                     Demand      Head  Pressure
  Node                 m3/h         m         m
  ----------------------------------------------
  1                  105.88    186.82     26.82
  2                  105.88    201.89     51.89
  3                  285.87    172.26     22.26
  4                  127.05    197.19     42.19
  5                  211.75    182.43     22.43
  6                  349.39    192.65     27.65
  7                -1185.82    210.00      0.00  Reservoir
   
   
  Link Results at 0:00:00 hrs:
  ------------------------------------
                       Flow     State
  Link                 m3/h          
  ------------------------------------
  1                  196.32      open
  2                   90.45      open
  3                  883.62      open
  4                  120.90      open
  5                   74.52      open
  6                  635.66      open
  7                  286.27      open
  8                 1185.82      open
   
   
  Node Results at 0:05:00 hrs:
  ----------------------------------------------
                     Demand      Head  Pressure
  Node                 m3/h         m         m
  ----------------------------------------------
  1                   89.64    192.97     32.97
  2                   89.64    204.04     54.04
  3                  242.02    182.28     32.28
  4                  107.56    200.59     45.59
  5                  179.27    189.75     29.75
  6                  295.80    197.25     32.25
  7                -1003.92    210.00      0.00  Reservoir
   
   
  Link Results at 0:05:00 hrs:
  ------------------------------------
                       Flow     State
  Link                 m3/h          
  ------------------------------------
  1                  166.21      open
  2                   76.57      open
  3                  748.08      open
  4                  102.35      open
  5                   63.09      open
  6                  538.16      open
  7                  242.36      open
  8                 1003.92      open
   
   
  Node Results at 0:10:00 hrs:
  ----------------------------------------------
                     Demand      Head  Pressure
  Node                 m3/h         m         m
  ----------------------------------------------
  1                   90.75    192.58     32.58
  2                   90.75    203.90     53.90
  3                  245.01    181.64     31.64
  4                  108.89    200.37     45.37
  5                  181.49    189.28     29.28
  6                  299.46    196.96     31.96
  7                -1016.35    210.00      0.00  Reservoir
   
   
  Link Results at 0:10:00 hrs:
  ------------------------------------
                       Flow     State
  Link                 m3/h          
  ------------------------------------
  1                  168.27      open
  2                   77.52      open
  3                  757.34      open
  4                  103.62      open
  5                   63.87      open
  6                  544.82      open
  7                  245.36      open
  8                 1016.35      open
   
   
  Node Results at 0:15:00 hrs:
  ----------------------------------------------
                     Demand      Head  Pressure
  Node                 m3/h         m         m
  ----------------------------------------------
  1                   97.19    190.22     30.22
  2                   97.19    203.08     53.08
  3                  262.40    177.80     27.80
  4                  116.62    199.07     44.07
  5                  194.37    186.48     26.48
  6                  320.71    195.20     30.20
  7                -1088.48    210.00      0.00  Reservoir
   
   
  Link Results at 0:15:00 hrs:
  ------------------------------------
                       Flow     State
  Link                 m3/h          
  ------------------------------------
  1                  180.21      open
  2                   83.02      open
  3                  811.08      open
  4                  110.98      open
  5                   68.40      open
  6                  583.48      open
  7                  262.77      open
  8                 1088.48      open
   
   
  Node Results at 0:20:00 hrs:
  ----------------------------------------------
                     Demand      Head  Pressure
  Node                 m3/h         m         m
  ----------------------------------------------
  1                   90.65    192.61     32.61
  2                   90.65    203.92     53.92
  3                  244.77    181.69     31.69
  4                  108.79    200.39     45.39
  5                  181.31    189.32     29.32
  6                  299.16    196.98     31.98
  7                -1015.33    210.00      0.00  Reservoir
   
   
  Link Results at 0:20:00 hrs:
  ------------------------------------
                       Flow     State
  Link                 m3/h          
  ------------------------------------
  1                  168.10      open
  2                   77.44      open
  3                  756.58      open
  4                  103.52      open
  5                   63.81      open
  6                  544.27      open
  7                  245.11      open
  8                 1015.33      open
   
   
  Node Results at 0:25:00 hrs:
  ----------------------------------------------
                     Demand      Head  Pressure
  Node                 m3/h         m         m
  ----------------------------------------------
  1                   66.43    200.22     40.22
  2                   66.43    206.58     56.58
  3                  179.36    194.08     44.08
  4                   79.72    204.60     49.60
  5                  132.86    198.37     38.37
  6                  219.22    202.68     37.68
  7                 -744.02    210.00      0.00  Reservoir
   
   
  Link Results at 0:25:00 hrs:
  ------------------------------------
                       Flow     State
  Link                 m3/h          
  ------------------------------------
  1                  123.18      open
  2                   56.75      open
  3                  554.41      open
  4                   75.86      open
  5                   46.76      open
  6                  398.84      open
  7                  179.62      open
  8                  744.02      open
   
   
  Node Results at 0:30:00 hrs:
  ----------------------------------------------
                     Demand      Head  Pressure
  Node                 m3/h         m         m
  ----------------------------------------------
  1                   77.85    196.89     36.89
  2                   77.85    205.41     55.41
  3                  210.19    188.65     38.65
  4                   93.42    202.75     47.75
  5                  155.70    194.40     34.40
  6                  256.90    200.18     35.18
  7                 -871.90    210.00      0.00  Reservoir
   
   
  Link Results at 0:30:00 hrs:
  ------------------------------------
                       Flow     State
  Link                 m3/h          
  ------------------------------------
  1                  144.35      open
  2                   66.50      open
  3                  649.70      open
  4                   88.89      open
  5                   54.79      open
  6                  467.38      open
  7                  210.49      open
  8                  871.90      open
   
   
  Node Results at 0:35:00 hrs:
  ----------------------------------------------
                     Demand      Head  Pressure
  Node                 m3/h         m         m
  ----------------------------------------------
  1                   67.74    199.87     39.87
  2                   67.74    206.45     56.45
  3                  182.89    193.50     43.50
  4                   81.28    204.40     49.40
  5                  135.47    197.95     37.95
  6                  223.53    202.41     37.41
  7                 -758.65    210.00      0.00  Reservoir
   
   
  Link Results at 0:35:00 hrs:
  ------------------------------------
                       Flow     State
  Link                 m3/h          
  ------------------------------------
  1                  125.60      open
  2                   57.87      open
  3                  565.31      open
  4                   77.35      open
  5                   47.68      open
  6                  406.68      open
  7                  183.15      open
  8                  758.65      open
   
   
  Node Results at 0:40:00 hrs:
  ----------------------------------------------
                     Demand      Head  Pressure
  Node                 m3/h         m         m
  ----------------------------------------------
  1                   65.98    200.35     40.35
  2                   65.98    206.62     56.62
  3                  178.14    194.28     44.28
  4                   79.17    204.66     49.66
  5                  131.96    198.52     38.52
  6                  217.73    202.77     37.77
  7                 -738.96    210.00      0.00  Reservoir
   
   
  Link Results at 0:40:00 hrs:
  ------------------------------------
                       Flow     State
  Link                 m3/h          
  ------------------------------------
  1                  122.34      open
  2                   56.36      open
  3                  550.64      open
  4                   75.34      open
  5                   46.44      open
  6                  396.12      open
  7                  178.39      open
  8                  738.96      open
   
   
  Node Results at 0:45:00 hrs:
  ----------------------------------------------
                     Demand      Head  Pressure
  Node                 m3/h         m         m
  ----------------------------------------------
  1                   67.40    199.96     39.96
  2                   67.40    206.49     56.49
  3                  181.99    193.65     43.65
  4                   80.89    204.45     49.45
  5                  134.81    198.05     38.05
  6                  222.43    202.48     37.48
  7                 -754.93    210.00      0.00  Reservoir
   
   
  Link Results at 0:45:00 hrs:
  ------------------------------------
                       Flow     State
  Link                 m3/h          
  ------------------------------------
  1                  124.99      open
  2                   57.58      open
  3                  562.54      open
  4                   76.97      open
  5                   47.44      open
  6                  404.68      open
  7                  182.25      open
  8                  754.93      open
   
   
  Node Results at 0:50:00 hrs:
  ----------------------------------------------
                     Demand      Head  Pressure
  Node                 m3/h         m         m
  ----------------------------------------------
  1                   63.91    200.90     40.90
  2                   63.91    206.82     56.82
  3                  172.56    195.18     45.18
  4                   76.69    204.97     49.97
  5                  127.82    199.18     39.18
  6                  210.91    203.19     38.19
  7                 -715.80    210.00      0.00  Reservoir
   
   
  Link Results at 0:50:00 hrs:
  ------------------------------------
                       Flow     State
  Link                 m3/h          
  ------------------------------------
  1                  118.51      open
  2                   54.60      open
  3                  533.38      open
  4                   72.98      open
  5                   44.98      open
  6                  383.71      open
  7                  172.80      open
  8                  715.80      open
   
   
  Node Results at 0:55:00 hrs:
  ----------------------------------------------
                     Demand      Head  Pressure
  Node                 m3/h         m         m
  ----------------------------------------------
  1                   70.36    199.13     39.13
  2                   70.36    206.20     56.20
  3                  189.97    192.29     42.29
  4                   84.43    203.99     48.99
  5                  140.72    197.07     37.07
  6                  232.18    201.86     36.86
  7                 -788.02    210.00      0.00  Reservoir
   
   
  Link Results at 0:55:00 hrs:
  ------------------------------------
                       Flow     State
  Link                 m3/h          
  ------------------------------------
  1                  130.46      open
  2                   60.11      open
  3                  587.19      open
  4                   80.34      open
  5                   49.52      open
  6                  422.42      open
  7                  190.24      open
  8                  788.02      open
   
   
  Node Results at 1:00:00 hrs:
  ----------------------------------------------
                     Demand      Head  Pressure
  Node                 m3/h         m         m
  ----------------------------------------------
  1                   64.57    200.73     40.73
  2                   64.57    206.75     56.75
  3                  174.33    194.90     44.90
  4                   77.48    204.87     49.87
  5                  129.13    198.97     38.97
  6                  213.07    203.06     38.06
  7                 -723.14    210.00      0.00  Reservoir
   
   
  Link Results at 1:00:00 hrs:
  ------------------------------------
                       Flow     State
  Link                 m3/h          
  ------------------------------------
  1                  119.72      open
  2                   55.16      open
  3                  538.85      open
  4                   73.73      open
  5                   45.44      open
  6                  387.64      open
  7                  174.58      open
  8                  723.14      open
   
   
  Node Results at 1:05:00 hrs:
  ----------------------------------------------
                     Demand      Head  Pressure
  Node                 m3/h         m         m
  ----------------------------------------------
  1                   59.43    202.05     42.05
  2                   59.43    207.22     57.22
  3                  160.45    197.05     47.05
  4                   71.31    205.60     50.60
  5                  118.86    200.54     40.54
  6                  196.11    204.05     39.05
  7                 -665.59    210.00      0.00  Reservoir
   
   
  Link Results at 1:05:00 hrs:
  ------------------------------------
                       Flow     State
  Link                 m3/h          
  ------------------------------------
  1                  110.20      open
  2                   50.77      open
  3                  495.97      open
  4                   67.86      open
  5                   41.83      open
  6                  356.79      open
  7                  160.68      open
  8                  665.59      open
   
   
  Node Results at 1:10:00 hrs:
  ----------------------------------------------
                     Demand      Head  Pressure
  Node                 m3/h         m         m
  ----------------------------------------------
  1                   60.11    201.88     41.88
  2                   60.11    207.16     57.16
  3                  162.29    196.77     46.77
  4                   72.13    205.51     50.51
  5                  120.21    200.34     40.34
  6                  198.35    203.92     38.92
  7                 -673.20    210.00      0.00  Reservoir
   
   
  Link Results at 1:10:00 hrs:
  ------------------------------------
                       Flow     State
  Link                 m3/h          
  ------------------------------------
  1                  111.46      open
  2                   51.35      open
  3                  501.64      open
  4                   68.64      open
  5                   42.30      open
  6                  360.87      open
  7                  162.52      open
  8                  673.20      open
   
   
  Node Results at 1:15:00 hrs:
  ----------------------------------------------
                     Demand      Head  Pressure
  Node                 m3/h         m         m
  ----------------------------------------------
  1                   58.39    202.30     42.30
  2                   58.39    207.31     57.31
  3                  157.65    197.46     47.46
  4                   70.07    205.74     50.74
  5                  116.78    200.84     40.84
  6                  192.69    204.24     39.24
  7                 -653.97    210.00      0.00  Reservoir
   
   
  Link Results at 1:15:00 hrs:
  ------------------------------------
                       Flow     State
  Link                 m3/h          
  ------------------------------------
  1                  108.27      open
  2                   49.88      open
  3                  487.30      open
  4                   66.67      open
  5                   41.10      open
  6                  350.56      open
  7                  157.88      open
  8                  653.97      open
   
   
  Node Results at 1:20:00 hrs:
  ----------------------------------------------
                     Demand      Head  Pressure
  Node                 m3/h         m         m
  ----------------------------------------------
  1                   63.86    200.91     40.91
  2                   63.86    206.82     56.82
  3                  172.41    195.21     45.21
  4                   76.63    204.98     49.98
  5                  127.71    199.19     39.19
  6                  210.73    203.20     38.20
  7                 -715.19    210.00      0.00  Reservoir
   
   
  Link Results at 1:20:00 hrs:
  ------------------------------------
                       Flow     State
  Link                 m3/h          
  ------------------------------------
  1                  118.41      open
  2                   54.55      open
  3                  532.93      open
  4                   72.92      open
  5                   44.94      open
  6                  383.38      open
  7                  172.66      open
  8                  715.19      open
   
   
  Node Results at 1:25:00 hrs:
  ----------------------------------------------
                     Demand      Head  Pressure
  Node                 m3/h         m         m
  ----------------------------------------------
  1                   53.57    203.44     43.44
  2                   53.57    207.70     57.70
  3                  144.65    199.31     49.31
  4                   64.29    206.37     51.37
  5                  107.14    202.19     42.19
  6                  176.79    205.09     40.09
  7                 -600.01    210.00      0.00  Reservoir
   
   
  Link Results at 1:25:00 hrs:
  ------------------------------------
                       Flow     State
  Link                 m3/h          
  ------------------------------------
  1                   99.34      open
  2                   45.77      open
  3                  447.10      open
  4                   61.17      open
  5                   37.71      open
  6                  321.64      open
  7                  144.85      open
  8                  600.01      open
   
   
  Node Results at 1:30:00 hrs:
  ----------------------------------------------
                     Demand      Head  Pressure
  Node                 m3/h         m         m
  ----------------------------------------------
  1                   55.59    202.97     42.97
  2                   55.59    207.54     57.54
  3                  150.11    198.55     48.55
  4                   66.71    206.11     51.11
  5                  111.19    201.64     41.64
  6                  183.46    204.74     39.74
  7                 -622.66    210.00      0.00  Reservoir
   
   
  Link Results at 1:30:00 hrs:
  ------------------------------------
                       Flow     State
  Link                 m3/h          
  ------------------------------------
  1                  103.09      open
  2                   47.49      open
  3                  463.98      open
  4                   63.48      open
  5                   39.13      open
  6                  333.78      open
  7                  150.32      open
  8                  622.66      open
   
   
  Node Results at 1:35:00 hrs:
  ----------------------------------------------
                     Demand      Head  Pressure
  Node                 m3/h         m         m
  ----------------------------------------------
  1                   48.64    204.51     44.51
  2                   48.64    208.08     58.08
  3                  131.32    201.06     51.06
  4                   58.37    206.97     51.97
  5                   97.28    203.47     43.47
  6                  160.50    205.89     40.89
  7                 -544.74    210.00      0.00  Reservoir
   
   
  Link Results at 1:35:00 hrs:
  ------------------------------------
                       Flow     State
  Link                 m3/h          
  ------------------------------------
  1                   90.19      open
  2                   41.55      open
  3                  405.92      open
  4                   55.54      open
  5                   34.23      open
  6                  292.01      open
  7                  131.51      open
  8                  544.74      open
   
   
  Node Results at 1:40:00 hrs:
  ----------------------------------------------
                     Demand      Head  Pressure
  Node                 m3/h         m         m
  ----------------------------------------------
  1                   39.10    206.34     46.34
  2                   39.10    208.72     58.72
  3                  105.56    204.04     54.04
  4                   46.92    207.98     52.98
  5                   78.19    205.64     45.64
  6                  129.02    207.26     42.26
  7                 -437.89    210.00      0.00  Reservoir
   
   
  Link Results at 1:40:00 hrs:
  ------------------------------------
                       Flow     State
  Link                 m3/h          
  ------------------------------------
  1                   72.50      open
  2                   33.40      open
  3                  326.30      open
  4                   44.65      open
  5                   27.52      open
  6                  234.73      open
  7                  105.71      open
  8                  437.89      open
   
   
  Node Results at 1:45:00 hrs:
  ----------------------------------------------
                     Demand      Head  Pressure
  Node                 m3/h         m         m
  ----------------------------------------------
  1                   55.25    203.05     43.05
  2                   55.25    207.57     57.57
  3                  149.16    198.69     48.69
  4                   66.29    206.16     51.16
  5                  110.49    201.74     41.74
  6                  182.31    204.80     39.80
  7                 -618.75    210.00      0.00  Reservoir
   
   
  Link Results at 1:45:00 hrs:
  ------------------------------------
                       Flow     State
  Link                 m3/h          
  ------------------------------------
  1                  102.44      open
  2                   47.19      open
  3                  461.06      open
  4                   63.08      open
  5                   38.88      open
  6                  331.68      open
  7                  149.37      open
  8                  618.75      open
   
   
  Node Results at 1:50:00 hrs:
  ----------------------------------------------
                     Demand      Head  Pressure
  Node                 m3/h         m         m
  ----------------------------------------------
  1                   55.66    202.95     42.95
  2                   55.66    207.53     57.53
  3                  150.29    198.53     48.53
  4                   66.79    206.10     51.10
  5                  111.32    201.62     41.62
  6                  183.68    204.73     39.73
  7                 -623.41    210.00      0.00  Reservoir
   
   
  Link Results at 1:50:00 hrs:
  ------------------------------------
                       Flow     State
  Link                 m3/h          
  ------------------------------------
  1                  103.21      open
  2                   47.55      open
  3                  464.54      open
  4                   63.56      open
  5                   39.18      open
  6                  334.18      open
  7                  150.50      open
  8                  623.41      open
   
   
  Node Results at 1:55:00 hrs:
  ----------------------------------------------
                     Demand      Head  Pressure
  Node                 m3/h         m         m
  ----------------------------------------------
  1                   46.86    204.88     44.88
  2                   46.86    208.21     58.21
  3                  126.53    201.66     51.66
  4                   56.23    207.17     52.17
  5                   93.72    203.91     43.91
  6                  154.64    206.17     41.17
  7                 -524.86    210.00      0.00  Reservoir
   
   
  Link Results at 1:55:00 hrs:
  ------------------------------------
                       Flow     State
  Link                 m3/h          
  ------------------------------------
  1                   86.90      open
  2                   40.03      open
  3                  391.10      open
  4                   53.51      open
  5                   32.98      open
  6                  281.35      open
  7                  126.71      open
  8                  524.86      open
   
   
  Node Results at 2:00:00 hrs:
  ----------------------------------------------
                     Demand      Head  Pressure
  Node                 m3/h         m         m
  ----------------------------------------------
  1                   61.35    201.56     41.56
  2                   61.35    207.05     57.05
  3                  165.64    196.26     46.26
  4                   73.62    205.34     50.34
  5                  122.70    199.97     39.97
  6                  202.45    203.68     38.68
  7                 -687.11    210.00      0.00  Reservoir
   
   
  Link Results at 2:00:00 hrs:
  ------------------------------------
                       Flow     State
  Link                 m3/h          
  ------------------------------------
  1                  113.76      open
  2                   52.41      open
  3                  512.00      open
  4                   70.05      open
  5                   43.18      open
  6                  368.33      open
  7                  165.88      open
  8                  687.11      open
   
   
  Node Results at 2:05:00 hrs:
  ----------------------------------------------
                     Demand      Head  Pressure
  Node                 m3/h         m         m
  ----------------------------------------------
  1                   42.19    205.78     45.78
  2                   42.19    208.52     58.52
  3                  113.90    203.13     53.13
  4                   50.62    207.67     52.67
  5                   84.37    204.99     44.98
  6                  139.21    206.84     41.84
  7                 -472.48    210.00      0.00  Reservoir
   
   
  Link Results at 2:05:00 hrs:
  ------------------------------------
                       Flow     State
  Link                 m3/h          
  ------------------------------------
  1                   78.22      open
  2                   36.04      open
  3                  352.07      open
  4                   48.17      open
  5                   29.69      open
  6                  253.28      open
  7                  114.06      open
  8                  472.48      open
   
   
  Node Results at 2:10:00 hrs:
  ----------------------------------------------
                     Demand      Head  Pressure
  Node                 m3/h         m         m
  ----------------------------------------------
  1                   48.93    204.45     44.45
  2                   48.93    208.06     58.06
  3                  132.12    200.96     50.96
  4                   58.72    206.93     51.93
  5                   97.86    203.40     43.40
  6                  161.48    205.85     40.85
  7                 -548.04    210.00      0.00  Reservoir
   
   
  Link Results at 2:10:00 hrs:
  ------------------------------------
                       Flow     State
  Link                 m3/h          
  ------------------------------------
  1                   90.73      open
  2                   41.80      open
  3                  408.37      open
  4                   55.88      open
  5                   34.44      open
  6                  293.78      open
  7                  132.30      open
  8                  548.04      open
   
   
  Node Results at 2:15:00 hrs:
  ----------------------------------------------
                     Demand      Head  Pressure
  Node                 m3/h         m         m
  ----------------------------------------------
  1                   47.13    204.82     44.82
  2                   47.13    208.19     58.19
  3                  127.24    201.57     51.57
  4                   56.55    207.14     52.14
  5                   94.25    203.84     43.84
  6                  155.52    206.12     41.12
  7                 -527.83    210.00      0.00  Reservoir
   
   
  Link Results at 2:15:00 hrs:
  ------------------------------------
                       Flow     State
  Link                 m3/h          
  ------------------------------------
  1                   87.39      open
  2                   40.26      open
  3                  393.31      open
  4                   53.81      open
  5                   33.17      open
  6                  282.95      open
  7                  127.42      open
  8                  527.83      open
   
   
  Node Results at 2:20:00 hrs:
  ----------------------------------------------
                     Demand      Head  Pressure
  Node                 m3/h         m         m
  ----------------------------------------------
  1                   54.57    203.21     43.21
  2                   54.57    207.62     57.62
  3                  147.33    198.94     48.94
  4                   65.48    206.25     51.25
  5                  109.13    201.92     41.92
  6                  180.07    204.92     39.92
  7                 -611.14    210.00      0.00  Reservoir
   
   
  Link Results at 2:20:00 hrs:
  ------------------------------------
                       Flow     State
  Link                 m3/h          
  ------------------------------------
  1                  101.18      open
  2                   46.61      open
  3                  455.39      open
  4                   62.31      open
  5                   38.40      open
  6                  327.60      open
  7                  147.54      open
  8                  611.14      open
   
   
  Node Results at 2:25:00 hrs:
  ----------------------------------------------
                     Demand      Head  Pressure
  Node                 m3/h         m         m
  ----------------------------------------------
  1                   53.41    203.47     43.47
  2                   53.41    207.72     57.72
  3                  144.20    199.37     49.37
  4                   64.09    206.39     51.39
  5                  106.82    202.24     42.24
  6                  176.25    205.11     40.11
  7                 -598.17    210.00      0.00  Reservoir
   
   
  Link Results at 2:25:00 hrs:
  ------------------------------------
                       Flow     State
  Link                 m3/h          
  ------------------------------------
  1                   99.03      open
  2                   45.63      open
  3                  445.73      open
  4                   60.99      open
  5                   37.59      open
  6                  320.65      open
  7                  144.41      open
  8                  598.17      open
   
   
  Node Results at 2:30:00 hrs:
  ----------------------------------------------
                     Demand      Head  Pressure
  Node                 m3/h         m         m
  ----------------------------------------------
  1                   46.49    204.95     44.95
  2                   46.49    208.23     58.23
  3                  125.52    201.78     51.78
  4                   55.79    207.21     52.21
  5                   92.98    204.00     44.00
  6                  153.41    206.22     41.22
  7                 -520.68    210.00      0.00  Reservoir
   
   
  Link Results at 2:30:00 hrs:
  ------------------------------------
                       Flow     State
  Link                 m3/h          
  ------------------------------------
  1                   86.20      open
  2                   39.71      open
  3                  387.98      open
  4                   53.08      open
  5                   32.72      open
  6                  279.11      open
  7                  125.70      open
  8                  520.68      open
   
   
  Node Results at 2:35:00 hrs:
  ----------------------------------------------
                     Demand      Head  Pressure
  Node                 m3/h         m         m
  ----------------------------------------------
  1                   46.65    204.92     44.92
  2                   46.65    208.22     58.22
  3                  125.95    201.73     51.73
  4                   55.98    207.19     52.19
  5                   93.30    203.96     43.96
  6                  153.94    206.20     41.20
  7                 -522.48    210.00      0.00  Reservoir
   
   
  Link Results at 2:35:00 hrs:
  ------------------------------------
                       Flow     State
  Link                 m3/h          
  ------------------------------------
  1                   86.50      open
  2                   39.85      open
  3                  389.32      open
  4                   53.27      open
  5                   32.83      open
  6                  280.08      open
  7                  126.13      open
  8                  522.48      open
   
   
  Node Results at 2:40:00 hrs:
  ----------------------------------------------
                     Demand      Head  Pressure
  Node                 m3/h         m         m
  ----------------------------------------------
  1                   40.16    206.15     46.15
  2                   40.16    208.65     58.65
  3                  108.43    203.73     53.73
  4                   48.19    207.87     52.87
  5                   80.32    205.42     45.42
  6                  132.53    207.12     42.12
  7                 -449.79    210.00      0.00  Reservoir
   
   
  Link Results at 2:40:00 hrs:
  ------------------------------------
                       Flow     State
  Link                 m3/h          
  ------------------------------------
  1                   74.47      open
  2                   34.31      open
  3                  335.16      open
  4                   45.86      open
  5                   28.27      open
  6                  241.11      open
  7                  108.58      open
  8                  449.79      open
   
   
  Node Results at 2:45:00 hrs:
  ----------------------------------------------
                     Demand      Head  Pressure
  Node                 m3/h         m         m
  ----------------------------------------------
  1                   34.60    207.08     47.08
  2                   34.60    208.98     58.98
  3                   93.41    205.24     55.24
  4                   41.52    208.39     53.39
  5                   69.19    206.53     46.53
  6                  114.17    207.81     42.81
  7                 -387.49    210.00      0.00  Reservoir
   
   
  Link Results at 2:45:00 hrs:
  ------------------------------------
                       Flow     State
  Link                 m3/h          
  ------------------------------------
  1                   64.15      open
  2                   29.56      open
  3                  288.74      open
  4                   39.51      open
  5                   24.35      open
  6                  207.72      open
  7                   93.55      open
  8                  387.49      open
   
   
  Node Results at 2:50:00 hrs:
  ----------------------------------------------
                     Demand      Head  Pressure
  Node                 m3/h         m         m
  ----------------------------------------------
  1                   40.69    206.06     46.06
  2                   40.69    208.62     58.62
  3                  109.86    203.58     53.58
  4                   48.83    207.82     52.82
  5                   81.38    205.31     45.31
  6                  134.28    207.05     42.05
  7                 -455.74    210.00      0.00  Reservoir
   
   
  Link Results at 2:50:00 hrs:
  ------------------------------------
                       Flow     State
  Link                 m3/h          
  ------------------------------------
  1                   75.45      open
  2                   34.76      open
  3                  339.59      open
  4                   46.46      open
  5                   28.64      open
  6                  244.30      open
  7                  110.02      open
  8                  455.74      open
   
   
  Node Results at 2:55:00 hrs:
  ----------------------------------------------
                     Demand      Head  Pressure
  Node                 m3/h         m         m
  ----------------------------------------------
  1                   41.75    205.86     45.86
  2                   41.75    208.55     58.55
  3                  112.74    203.26     53.26
  4                   50.10    207.71     52.71
  5                   83.51    205.08     45.08
  6                  137.79    206.90     41.90
  7                 -467.64    210.00      0.00  Reservoir
   
   
  Link Results at 2:55:00 hrs:
  ------------------------------------
                       Flow     State
  Link                 m3/h          
  ------------------------------------
  1                   77.42      open
  2                   35.67      open
  3                  348.47      open
  4                   47.68      open
  5                   29.39      open
  6                  250.68      open
  7                  112.89      open
  8                  467.64      open
   
   
  Node Results at 3:00:00 hrs:
  ----------------------------------------------
                     Demand      Head  Pressure
  Node                 m3/h         m         m
  ----------------------------------------------
  1                   44.92    205.26     45.26
  2                   44.92    208.34     58.34
  3                  121.29    202.29     52.29
  4                   53.91    207.38     52.38
  5                   89.84    204.37     44.37
  6                  148.24    206.45     41.45
  7                 -503.12    210.00      0.00  Reservoir
   
   
  Link Results at 3:00:00 hrs:
  ------------------------------------
                       Flow     State
  Link                 m3/h          
  ------------------------------------
  1                   83.30      open
  2                   38.38      open
  3                  374.90      open
  4                   51.30      open
  5                   31.62      open
  6                  269.70      open
  7                  121.46      open
  8                  503.12      open
   
   
  Node Results at 3:05:00 hrs:
  ----------------------------------------------
                     Demand      Head  Pressure
  Node                 m3/h         m         m
  ----------------------------------------------
  1                   43.49    205.54     45.54
  2                   43.49    208.44     58.44
  3                  117.43    202.73     52.73
  4                   52.19    207.53     52.53
  5                   86.99    204.69     44.69
  6                  143.53    206.66     41.66
  7                 -487.13    210.00      0.00  Reservoir
   
   
  Link Results at 3:05:00 hrs:
  ------------------------------------
                       Flow     State
  Link                 m3/h          
  ------------------------------------
  1                   80.65      open
  2                   37.16      open
  3                  362.99      open
  4                   49.67      open
  5                   30.61      open
  6                  261.13      open
  7                  117.60      open
  8                  487.13      open
   
   
  Node Results at 3:10:00 hrs:
  ----------------------------------------------
                     Demand      Head  Pressure
  Node                 m3/h         m         m
  ----------------------------------------------
  1                   36.16    206.83     46.83
  2                   36.16    208.89     58.89
  3                   97.62    204.84     54.84
  4                   43.39    208.25     53.25
  5                   72.31    206.23     46.23
  6                  119.31    207.63     42.63
  7                 -404.94    210.00      0.00  Reservoir
   
   
  Link Results at 3:10:00 hrs:
  ------------------------------------
                       Flow     State
  Link                 m3/h          
  ------------------------------------
  1                   67.04      open
  2                   30.89      open
  3                  301.74      open
  4                   41.29      open
  5                   25.45      open
  6                  217.07      open
  7                   97.76      open
  8                  404.94      open
   
   
  Node Results at 3:15:00 hrs:
  ----------------------------------------------
                     Demand      Head  Pressure
  Node                 m3/h         m         m
  ----------------------------------------------
  1                   35.29    206.97     46.97
  2                   35.29    208.94     58.94
  3                   95.28    205.07     55.07
  4                   42.35    208.33     53.33
  5                   70.58    206.40     46.40
  6                  116.46    207.73     42.73
  7                 -395.25    210.00      0.00  Reservoir
   
   
  Link Results at 3:15:00 hrs:
  ------------------------------------
                       Flow     State
  Link                 m3/h          
  ------------------------------------
  1                   65.44      open
  2                   30.15      open
  3                  294.52      open
  4                   40.30      open
  5                   24.84      open
  6                  211.88      open
  7                   95.42      open
  8                  395.25      open
   
   
  Node Results at 3:20:00 hrs:
  ----------------------------------------------
                     Demand      Head  Pressure
  Node                 m3/h         m         m
  ----------------------------------------------
  1                   31.50    207.55     47.55
  2                   31.50    209.14     59.14
  3                   85.05    206.00     56.00
  4                   37.80    208.64     53.64
  5                   63.00    207.08     47.08
  6                  103.95    208.16     43.16
  7                 -352.80    210.00      0.00  Reservoir
   
   
  Link Results at 3:20:00 hrs:
  ------------------------------------
                       Flow     State
  Link                 m3/h          
  ------------------------------------
  1                   58.41      open
  2                   26.91      open
  3                  262.89      open
  4                   35.97      open
  5                   22.17      open
  6                  189.12      open
  7                   85.17      open
  8                  352.80      open
   
   
  Node Results at 3:25:00 hrs:
  ----------------------------------------------
                     Demand      Head  Pressure
  Node                 m3/h         m         m
  ----------------------------------------------
  1                   29.21    207.87     47.87
  2                   29.21    209.25     59.25
  3                   78.86    206.52     56.52
  4                   35.05    208.82     53.82
  5                   58.41    207.46     47.46
  6                   96.38    208.40     43.40
  7                 -327.12    210.00      0.00  Reservoir
   
   
  Link Results at 3:25:00 hrs:
  ------------------------------------
                       Flow     State
  Link                 m3/h          
  ------------------------------------
  1                   54.16      open
  2                   24.95      open
  3                  243.76      open
  4                   33.35      open
  5                   20.56      open
  6                  175.36      open
  7                   78.97      open
  8                  327.12      open
   
   
  Node Results at 3:30:00 hrs:
  ----------------------------------------------
                     Demand      Head  Pressure
  Node                 m3/h         m         m
  ----------------------------------------------
  1                   27.35    208.11     48.11
  2                   27.35    209.34     59.34
  3                   73.84    206.92     56.92
  4                   32.82    208.96     53.96
  5                   54.70    207.75     47.75
  6                   90.25    208.59     43.59
  7                 -306.31    210.00      0.00  Reservoir
   
   
  Link Results at 3:30:00 hrs:
  ------------------------------------
                       Flow     State
  Link                 m3/h          
  ------------------------------------
  1                   50.71      open
  2                   23.36      open
  3                  228.24      open
  4                   31.23      open
  5                   19.25      open
  6                  164.20      open
  7                   73.95      open
  8                  306.31      open
   
   
  Node Results at 3:35:00 hrs:
  ----------------------------------------------
                     Demand      Head  Pressure
  Node                 m3/h         m         m
  ----------------------------------------------
  1                   38.27    206.48     46.48
  2                   38.27    208.77     58.77
  3                  103.32    204.27     54.27
  4                   45.92    208.05     53.05
  5                   76.54    205.81     45.81
  6                  126.28    207.37     42.36
  7                 -428.60    210.00      0.00  Reservoir
   
   
  Link Results at 3:35:00 hrs:
  ------------------------------------
                       Flow     State
  Link                 m3/h          
  ------------------------------------
  1                   70.96      open
  2                   32.69      open
  3                  319.37      open
  4                   43.70      open
  5                   26.93      open
  6                  229.75      open
  7                  103.47      open
  8                  428.60      open
   
   
  Node Results at 3:40:00 hrs:
  ----------------------------------------------
                     Demand      Head  Pressure
  Node                 m3/h         m         m
  ----------------------------------------------
  1                   29.62    207.81     47.81
  2                   29.62    209.23     59.23
  3                   79.97    206.43     56.43
  4                   35.54    208.79     53.79
  5                   59.24    207.39     47.39
  6                   97.75    208.36     43.36
  7                 -331.74    210.00      0.00  Reservoir
   
   
  Link Results at 3:40:00 hrs:
  ------------------------------------
                       Flow     State
  Link                 m3/h          
  ------------------------------------
  1                   54.92      open
  2                   25.30      open
  3                  247.20      open
  4                   33.82      open
  5                   20.85      open
  6                  177.83      open
  7                   80.09      open
  8                  331.74      open
   
   
  Node Results at 3:45:00 hrs:
  ----------------------------------------------
                     Demand      Head  Pressure
  Node                 m3/h         m         m
  ----------------------------------------------
  1                   29.23    207.86     47.86
  2                   29.23    209.25     59.25
  3                   78.93    206.52     56.52
  4                   35.08    208.82     53.82
  5                   58.47    207.46     47.46
  6                   96.47    208.40     43.40
  7                 -327.41    210.00      0.00  Reservoir
   
   
  Link Results at 3:45:00 hrs:
  ------------------------------------
                       Flow     State
  Link                 m3/h          
  ------------------------------------
  1                   54.21      open
  2                   24.97      open
  3                  243.97      open
  4                   33.38      open
  5                   20.58      open
  6                  175.51      open
  7                   79.04      open
  8                  327.41      open
   
   
  Node Results at 3:50:00 hrs:
  ----------------------------------------------
                     Demand      Head  Pressure
  Node                 m3/h         m         m
  ----------------------------------------------
  1                   26.36    208.23     48.23
  2                   26.36    209.38     59.38
  3                   71.18    207.13     57.13
  4                   31.63    209.02     54.02
  5                   52.72    207.90     47.90
  6                   87.00    208.68     43.68
  7                 -295.26    210.00      0.00  Reservoir
   
   
  Link Results at 3:50:00 hrs:
  ------------------------------------
                       Flow     State
  Link                 m3/h          
  ------------------------------------
  1                   48.88      open
  2                   22.52      open
  3                  220.01      open
  4                   30.10      open
  5                   18.55      open
  6                  158.28      open
  7                   71.28      open
  8                  295.26      open
   
   
  Node Results at 3:55:00 hrs:
  ----------------------------------------------
                     Demand      Head  Pressure
  Node                 m3/h         m         m
  ----------------------------------------------
  1                   32.26    207.43     47.43
  2                   32.26    209.10     59.10
  3                   87.11    205.82     55.82
  4                   38.72    208.58     53.58
  5                   64.53    206.95     46.95
  6                  106.47    208.08     43.08
  7                 -361.36    210.00      0.00  Reservoir
   
   
  Link Results at 3:55:00 hrs:
  ------------------------------------
                       Flow     State
  Link                 m3/h          
  ------------------------------------
  1                   59.83      open
  2                   27.56      open
  3                  269.27      open
  4                   36.84      open
  5                   22.71      open
  6                  193.71      open
  7                   87.24      open
  8                  361.36      open
   
   
  Node Results at 4:00:00 hrs:
  ----------------------------------------------
                     Demand      Head  Pressure
  Node                 m3/h         m         m
  ----------------------------------------------
  1                   25.16    208.38     48.38
  2                   25.16    209.43     59.43
  3                   67.93    207.36     57.36
  4                   30.19    209.11     54.11
  5                   50.32    208.07     48.07
  6                   83.02    208.79     43.79
  7                 -281.77    210.00      0.00  Reservoir
   
   
  Link Results at 4:00:00 hrs:
  ------------------------------------
                       Flow     State
  Link                 m3/h          
  ------------------------------------
  1                   46.65      open
  2                   21.49      open
  3                  209.96      open
  4                   28.73      open
  5                   17.71      open
  6                  151.05      open
  7                   68.02      open
  8                  281.77      open
   
   
  Node Results at 4:05:00 hrs:
  ----------------------------------------------
                     Demand      Head  Pressure
  Node                 m3/h         m         m
  ----------------------------------------------
  1                   29.70    207.80     47.80
  2                   29.70    209.23     59.23
  3                   80.19    206.42     56.42
  4                   35.64    208.78     53.78
  5                   59.40    207.38     47.38
  6                   98.01    208.35     43.35
  7                 -332.63    210.00      0.00  Reservoir
   
   
  Link Results at 4:05:00 hrs:
  ------------------------------------
                       Flow     State
  Link                 m3/h          
  ------------------------------------
  1                   55.07      open
  2                   25.37      open
  3                  247.86      open
  4                   33.91      open
  5                   20.90      open
  6                  178.31      open
  7                   80.30      open
  8                  332.63      open
   
   
  Node Results at 4:10:00 hrs:
  ----------------------------------------------
                     Demand      Head  Pressure
  Node                 m3/h         m         m
  ----------------------------------------------
  1                   28.17    208.00     48.00
  2                   28.17    209.30     59.30
  3                   76.05    206.75     56.75
  4                   33.80    208.90     53.90
  5                   56.33    207.63     47.63
  6                   92.94    208.51     43.51
  7                 -315.45    210.00      0.00  Reservoir
   
   
  Link Results at 4:10:00 hrs:
  ------------------------------------
                       Flow     State
  Link                 m3/h          
  ------------------------------------
  1                   52.23      open
  2                   24.06      open
  3                  235.06      open
  4                   32.16      open
  5                   19.82      open
  6                  169.10      open
  7                   76.15      open
  8                  315.45      open
   
   
  Node Results at 4:15:00 hrs:
  ----------------------------------------------
                     Demand      Head  Pressure
  Node                 m3/h         m         m
  ----------------------------------------------
  1                   32.95    207.33     47.33
  2                   32.95    209.07     59.07
  3                   88.97    205.65     55.65
  4                   39.54    208.52     53.52
  5                   65.91    206.83     46.83
  6                  108.75    208.00     43.00
  7                 -369.08    210.00      0.00  Reservoir
   
   
  Link Results at 4:15:00 hrs:
  ------------------------------------
                       Flow     State
  Link                 m3/h          
  ------------------------------------
  1                   61.10      open
  2                   28.15      open
  3                  275.02      open
  4                   37.63      open
  5                   23.19      open
  6                  197.85      open
  7                   89.10      open
  8                  369.08      open
   
   
  Node Results at 4:20:00 hrs:
  ----------------------------------------------
                     Demand      Head  Pressure
  Node                 m3/h         m         m
  ----------------------------------------------
  1                   31.00    207.62     47.62
  2                   31.00    209.17     59.17
  3                   83.70    206.12     56.12
  4                   37.20    208.68     53.68
  5                   62.00    207.17     47.17
  6                  102.30    208.22     43.22
  7                 -347.20    210.00      0.00  Reservoir
   
   
  Link Results at 4:20:00 hrs:
  ------------------------------------
                       Flow     State
  Link                 m3/h          
  ------------------------------------
  1                   57.48      open
  2                   26.48      open
  3                  258.71      open
  4                   35.40      open
  5                   21.82      open
  6                  186.12      open
  7                   83.82      open
  8                  347.20      open
   
   
  Node Results at 4:25:00 hrs:
  ----------------------------------------------
                     Demand      Head  Pressure
  Node                 m3/h         m         m
  ----------------------------------------------
  1                   29.74    207.79     47.79
  2                   29.74    209.23     59.23
  3                   80.28    206.41     56.41
  4                   35.68    208.78     53.78
  5                   59.47    207.38     47.38
  6                   98.13    208.35     43.35
  7                 -333.03    210.00      0.00  Reservoir
   
   
  Link Results at 4:25:00 hrs:
  ------------------------------------
                       Flow     State
  Link                 m3/h          
  ------------------------------------
  1                   55.14      open
  2                   25.40      open
  3                  248.16      open
  4                   33.95      open
  5                   20.93      open
  6                  178.52      open
  7                   80.40      open
  8                  333.03      open
   
   
  Node Results at 4:30:00 hrs:
  ----------------------------------------------
                     Demand      Head  Pressure
  Node                 m3/h         m         m
  ----------------------------------------------
  1                   34.72    207.06     47.06
  2                   34.72    208.97     58.97
  3                   93.75    205.21     55.21
  4                   41.67    208.37     53.37
  5                   69.44    206.50     46.50
  6                  114.58    207.80     42.80
  7                 -388.89    210.00      0.00  Reservoir
   
   
  Link Results at 4:30:00 hrs:
  ------------------------------------
                       Flow     State
  Link                 m3/h          
  ------------------------------------
  1                   64.38      open
  2                   29.66      open
  3                  289.78      open
  4                   39.65      open
  5                   24.44      open
  6                  208.47      open
  7                   93.88      open
  8                  388.89      open
   
   
  Node Results at 4:35:00 hrs:
  ----------------------------------------------
                     Demand      Head  Pressure
  Node                 m3/h         m         m
  ----------------------------------------------
  1                   37.47    206.61     46.61
  2                   37.47    208.82     58.82
  3                  101.18    204.49     54.49
  4                   44.97    208.13     53.13
  5                   74.95    205.97     45.97
  6                  123.66    207.47     42.47
  7                 -419.71    210.00      0.00  Reservoir
   
   
  Link Results at 4:35:00 hrs:
  ------------------------------------
                       Flow     State
  Link                 m3/h          
  ------------------------------------
  1                   69.49      open
  2                   32.01      open
  3                  312.75      open
  4                   42.79      open
  5                   26.38      open
  6                  224.99      open
  7                  101.32      open
  8                  419.71      open
   
   
  Node Results at 4:40:00 hrs:
  ----------------------------------------------
                     Demand      Head  Pressure
  Node                 m3/h         m         m
  ----------------------------------------------
  1                   37.26    206.65     46.65
  2                   37.26    208.83     58.83
  3                  100.60    204.55     54.55
  4                   44.71    208.15     53.15
  5                   74.52    206.02     46.02
  6                  122.95    207.49     42.49
  7                 -417.29    210.00      0.00  Reservoir
   
   
  Link Results at 4:40:00 hrs:
  ------------------------------------
                       Flow     State
  Link                 m3/h          
  ------------------------------------
  1                   69.09      open
  2                   31.83      open
  3                  310.95      open
  4                   42.55      open
  5                   26.22      open
  6                  223.69      open
  7                  100.74      open
  8                  417.29      open
   
   
  Node Results at 4:45:00 hrs:
  ----------------------------------------------
                     Demand      Head  Pressure
  Node                 m3/h         m         m
  ----------------------------------------------
  1                   39.15    206.33     46.33
  2                   39.15    208.71     58.71
  3                  105.72    204.02     54.02
  4                   46.99    207.97     52.97
  5                   78.31    205.63     45.63
  6                  129.21    207.25     42.25
  7                 -438.53    210.00      0.00  Reservoir
   
   
  Link Results at 4:45:00 hrs:
  ------------------------------------
                       Flow     State
  Link                 m3/h          
  ------------------------------------
  1                   72.60      open
  2                   33.45      open
  3                  326.77      open
  4                   44.71      open
  5                   27.56      open
  6                  235.07      open
  7                  105.87      open
  8                  438.53      open
   
   
  Node Results at 4:50:00 hrs:
  ----------------------------------------------
                     Demand      Head  Pressure
  Node                 m3/h         m         m
  ----------------------------------------------
  1                   36.40    206.79     46.79
  2                   36.40    208.88     58.88
  3                   98.28    204.78     54.78
  4                   43.68    208.23     53.23
  5                   72.80    206.18     46.18
  6                  120.12    207.60     42.60
  7                 -407.68    210.00      0.00  Reservoir
   
   
  Link Results at 4:50:00 hrs:
  ------------------------------------
                       Flow     State
  Link                 m3/h          
  ------------------------------------
  1                   67.50      open
  2                   31.10      open
  3                  303.78      open
  4                   41.56      open
  5                   25.62      open
  6                  218.54      open
  7                   98.42      open
  8                  407.68      open
   
   
  Node Results at 4:55:00 hrs:
  ----------------------------------------------
                     Demand      Head  Pressure
  Node                 m3/h         m         m
  ----------------------------------------------
  1                   38.11    206.51     46.51
  2                   38.11    208.78     58.78
  3                  102.90    204.31     54.31
  4                   45.73    208.07     53.07
  5                   76.22    205.84     45.84
  6                  125.77    207.38     42.38
  7                 -426.85    210.00      0.00  Reservoir
   
   
  Link Results at 4:55:00 hrs:
  ------------------------------------
                       Flow     State
  Link                 m3/h          
  ------------------------------------
  1                   70.67      open
  2                   32.56      open
  3                  318.07      open
  4                   43.52      open
  5                   26.82      open
  6                  228.81      open
  7                  103.05      open
  8                  426.85      open
   
   
  Node Results at 5:00:00 hrs:
  ----------------------------------------------
                     Demand      Head  Pressure
  Node                 m3/h         m         m
  ----------------------------------------------
  1                   37.31    206.64     46.64
  2                   37.31    208.82     58.82
  3                  100.74    204.53     54.53
  4                   44.77    208.14     53.14
  5                   74.62    206.01     46.01
  6                  123.12    207.49     42.49
  7                 -417.88    210.00      0.00  Reservoir
   
   
  Link Results at 5:00:00 hrs:
  ------------------------------------
                       Flow     State
  Link                 m3/h          
  ------------------------------------
  1                   69.18      open
  2                   31.87      open
  3                  311.38      open
  4                   42.60      open
  5                   26.26      open
  6                  224.00      open
  7                  100.88      open
  8                  417.88      open
   
   
  Node Results at 5:05:00 hrs:
  ----------------------------------------------
                     Demand      Head  Pressure
  Node                 m3/h         m         m
  ----------------------------------------------
  1                   38.76    206.40     46.40
  2                   38.76    208.74     58.74
  3                  104.64    204.13     54.13
  4                   46.51    208.01     53.01
  5                   77.51    205.71     45.71
  6                  127.90    207.30     42.30
  7                 -434.08    210.00      0.00  Reservoir
   
   
  Link Results at 5:05:00 hrs:
  ------------------------------------
                       Flow     State
  Link                 m3/h          
  ------------------------------------
  1                   71.87      open
  2                   33.11      open
  3                  323.46      open
  4                   44.26      open
  5                   27.28      open
  6                  232.69      open
  7                  104.79      open
  8                  434.08      open
   
   
  Node Results at 5:10:00 hrs:
  ----------------------------------------------
                     Demand      Head  Pressure
  Node                 m3/h         m         m
  ----------------------------------------------
  1                   36.95    206.70     46.70
  2                   36.95    208.85     58.85
  3                   99.77    204.63     54.63
  4                   44.34    208.18     53.18
  5                   73.90    206.08     46.08
  6                  121.94    207.53     42.53
  7                 -413.85    210.00      0.00  Reservoir
   
   
  Link Results at 5:10:00 hrs:
  ------------------------------------
                       Flow     State
  Link                 m3/h          
  ------------------------------------
  1                   68.52      open
  2                   31.57      open
  3                  308.38      open
  4                   42.19      open
  5                   26.01      open
  6                  221.84      open
  7                   99.91      open
  8                  413.85      open
   
   
  Node Results at 5:15:00 hrs:
  ----------------------------------------------
                     Demand      Head  Pressure
  Node                 m3/h         m         m
  ----------------------------------------------
  1                   33.21    207.29     47.29
  2                   33.21    209.05     59.05
  3                   89.68    205.59     55.59
  4                   39.86    208.50     53.50
  5                   66.43    206.78     46.78
  6                  109.61    207.97     42.97
  7                 -372.00    210.00      0.00  Reservoir
   
   
  Link Results at 5:15:00 hrs:
  ------------------------------------
                       Flow     State
  Link                 m3/h          
  ------------------------------------
  1                   61.59      open
  2                   28.37      open
  3                  277.20      open
  4                   37.93      open
  5                   23.38      open
  6                  199.41      open
  7                   89.81      open
  8                  372.00      open
   
   
  Node Results at 5:20:00 hrs:
  ----------------------------------------------
                     Demand      Head  Pressure
  Node                 m3/h         m         m
  ----------------------------------------------
  1                   40.77    206.04     46.04
  2                   40.77    208.61     58.61
  3                  110.09    203.55     53.55
  4                   48.93    207.81     52.81
  5                   81.55    205.29     45.29
  6                  134.55    207.04     42.04
  7                 -456.67    210.00      0.00  Reservoir
   
   
  Link Results at 5:20:00 hrs:
  ------------------------------------
                       Flow     State
  Link                 m3/h          
  ------------------------------------
  1                   75.61      open
  2                   34.83      open
  3                  340.29      open
  4                   46.56      open
  5                   28.70      open
  6                  244.80      open
  7                  110.25      open
  8                  456.67      open
   
   
  Node Results at 5:25:00 hrs:
  ----------------------------------------------
                     Demand      Head  Pressure
  Node                 m3/h         m         m
  ----------------------------------------------
  1                   38.46    206.45     46.45
  2                   38.46    208.76     58.76
  3                  103.83    204.22     54.22
  4                   46.15    208.04     53.04
  5                   76.91    205.77     45.77
  6                  126.91    207.34     42.34
  7                 -430.71    210.00      0.00  Reservoir
   
   
  Link Results at 5:25:00 hrs:
  ------------------------------------
                       Flow     State
  Link                 m3/h          
  ------------------------------------
  1                   71.31      open
  2                   32.85      open
  3                  320.95      open
  4                   43.91      open
  5                   27.07      open
  6                  230.89      open
  7                  103.98      open
  8                  430.71      open
   
   
  Node Results at 5:30:00 hrs:
  ----------------------------------------------
                     Demand      Head  Pressure
  Node                 m3/h         m         m
  ----------------------------------------------
  1                   33.68    207.22     47.22
  2                   33.68    209.03     59.03
  3                   90.95    205.47     55.47
  4                   40.42    208.46     53.46
  5                   67.37    206.69     46.69
  6                  111.16    207.92     42.92
  7                 -377.26    210.00      0.00  Reservoir
   
   
  Link Results at 5:30:00 hrs:
  ------------------------------------
                       Flow     State
  Link                 m3/h          
  ------------------------------------
  1                   62.46      open
  2                   28.78      open
  3                  281.11      open
  4                   38.46      open
  5                   23.71      open
  6                  202.23      open
  7                   91.07      open
  8                  377.26      open
   
   
  Node Results at 5:35:00 hrs:
  ----------------------------------------------
                     Demand      Head  Pressure
  Node                 m3/h         m         m
  ----------------------------------------------
  1                   42.57    205.71     45.71
  2                   42.57    208.50     58.50
  3                  114.94    203.02     53.02
  4                   51.08    207.63     52.63
  5                   85.14    204.90     44.90
  6                  140.48    206.79     41.79
  7                 -476.77    210.00      0.00  Reservoir
   
   
  Link Results at 5:35:00 hrs:
  ------------------------------------
                       Flow     State
  Link                 m3/h          
  ------------------------------------
  1                   78.93      open
  2                   36.37      open
  3                  355.27      open
  4                   48.61      open
  5                   29.96      open
  6                  255.58      open
  7                  115.10      open
  8                  476.77      open
   
   
  Node Results at 5:40:00 hrs:
  ----------------------------------------------
                     Demand      Head  Pressure
  Node                 m3/h         m         m
  ----------------------------------------------
  1                   37.72    206.57     46.57
  2                   37.72    208.80     58.80
  3                  101.84    204.42     54.42
  4                   45.26    208.11     53.11
  5                   75.44    205.92     45.92
  6                  124.47    207.43     42.43
  7                 -422.45    210.00      0.00  Reservoir
   
   
  Link Results at 5:40:00 hrs:
  ------------------------------------
                       Flow     State
  Link                 m3/h          
  ------------------------------------
  1                   69.94      open
  2                   32.22      open
  3                  314.79      open
  4                   43.07      open
  5                   26.55      open
  6                  226.46      open
  7                  101.98      open
  8                  422.45      open
   
   
  Node Results at 5:45:00 hrs:
  ----------------------------------------------
                     Demand      Head  Pressure
  Node                 m3/h         m         m
  ----------------------------------------------
  1                   42.94    205.64     45.64
  2                   42.94    208.48     58.48
  3                  115.95    202.90     52.90
  4                   51.53    207.59     52.59
  5                   85.89    204.82     44.82
  6                  141.71    206.74     41.74
  7                 -480.97    210.00      0.00  Reservoir
   
   
  Link Results at 5:45:00 hrs:
  ------------------------------------
                       Flow     State
  Link                 m3/h          
  ------------------------------------
  1                   79.63      open
  2                   36.69      open
  3                  358.40      open
  4                   49.04      open
  5                   30.22      open
  6                  257.83      open
  7                  116.11      open
  8                  480.97      open
   
   
  Node Results at 5:50:00 hrs:
  ----------------------------------------------
                     Demand      Head  Pressure
  Node                 m3/h         m         m
  ----------------------------------------------
  1                   47.74    204.70     44.70
  2                   47.74    208.14     58.14
  3                  128.89    201.37     51.37
  4                   57.29    207.07     52.07
  5                   95.48    203.69     43.69
  6                  157.54    206.03     41.03
  7                 -534.68    210.00      0.00  Reservoir
   
   
  Link Results at 5:50:00 hrs:
  ------------------------------------
                       Flow     State
  Link                 m3/h          
  ------------------------------------
  1                   88.52      open
  2                   40.78      open
  3                  398.42      open
  4                   54.51      open
  5                   33.60      open
  6                  286.62      open
  7                  129.08      open
  8                  534.68      open
   
   
  Node Results at 5:55:00 hrs:
  ----------------------------------------------
                     Demand      Head  Pressure
  Node                 m3/h         m         m
  ----------------------------------------------
  1                   47.50    204.75     44.75
  2                   47.50    208.16     58.16
  3                  128.24    201.45     51.45
  4                   57.00    207.10     52.10
  5                   94.99    203.75     43.75
  6                  156.74    206.07     41.07
  7                 -531.95    210.00      0.00  Reservoir
   
   
  Link Results at 5:55:00 hrs:
  ------------------------------------
                       Flow     State
  Link                 m3/h          
  ------------------------------------
  1                   88.07      open
  2                   40.57      open
  3                  396.39      open
  4                   54.24      open
  5                   33.43      open
  6                  285.16      open
  7                  128.42      open
  8                  531.95      open
   
   
  Node Results at 6:00:00 hrs:
  ----------------------------------------------
                     Demand      Head  Pressure
  Node                 m3/h         m         m
  ----------------------------------------------
  1                   55.70    202.95     42.95
  2                   55.70    207.53     57.53
  3                  150.38    198.51     48.51
  4                   66.84    206.10     51.10
  5                  111.39    201.61     41.61
  6                  183.80    204.72     39.72
  7                 -623.81    210.00      0.00  Reservoir
   
   
  Link Results at 6:00:00 hrs:
  ------------------------------------
                       Flow     State
  Link                 m3/h          
  ------------------------------------
  1                  103.28      open
  2                   47.58      open
  3                  464.83      open
  4                   63.60      open
  5                   39.20      open
  6                  334.40      open
  7                  150.60      open
  8                  623.81      open
   
   
  Node Results at 6:05:00 hrs:
  ----------------------------------------------
                     Demand      Head  Pressure
  Node                 m3/h         m         m
  ----------------------------------------------
  1                   47.23    204.80     44.80
  2                   47.23    208.18     58.18
  3                  127.51    201.54     51.54
  4                   56.67    207.13     52.13
  5                   94.45    203.82     43.82
  6                  155.85    206.11     41.11
  7                 -528.94    210.00      0.00  Reservoir
   
   
  Link Results at 6:05:00 hrs:
  ------------------------------------
                       Flow     State
  Link                 m3/h          
  ------------------------------------
  1                   87.57      open
  2                   40.34      open
[...]
   
   
  Link Results at 22:30:00 hrs:
  ------------------------------------
                       Flow     State
  Link                 m3/h          
  ------------------------------------
  1                  244.87      open
  2                  112.82      open
  3                 1102.13      open
  4                  150.80      open
  5                   92.95      open
  6                  792.86      open
  7                  357.07      open
  8                 1479.06      open
   
   
  Node Results at 22:35:00 hrs:
  ----------------------------------------------
                     Demand      Head  Pressure
  Node                 m3/h         m         m
  ----------------------------------------------
  1                   91.16    192.43     32.43
  2                   91.16    203.85     53.85
  3                  246.13    181.40     31.40
  4                  109.39    200.29     45.29
  5                  182.32    189.11     29.11
  6                  300.83    196.85     31.85
  7                -1020.99    210.00      0.00  Reservoir
   
   
  Link Results at 22:35:00 hrs:
  ------------------------------------
                       Flow     State
  Link                 m3/h          
  ------------------------------------
  1                  169.04      open
  2                   77.88      open
  3                  760.79      open
  4                  104.09      open
  5                   64.16      open
  6                  547.31      open
  7                  246.48      open
  8                 1020.99      open
   
   
  Node Results at 22:40:00 hrs:
  ----------------------------------------------
                     Demand      Head  Pressure
  Node                 m3/h         m         m
  ----------------------------------------------
  1                  149.63    170.60     10.60
  2                  149.63    195.68     45.68
  3                  339.93    150.07      0.07
  4                  179.56    187.34     32.34
  5                  299.27    161.89      1.89
  6                  493.79    179.17     14.17
  7                -1611.81    210.00      0.00  Reservoir
   
   
  Link Results at 22:40:00 hrs:
  ------------------------------------
                       Flow     State
  Link                 m3/h          
  ------------------------------------
  1                  258.51      open
  2                  108.88      open
  3                 1203.67      open
  4                  150.24      open
  5                   80.82      open
  6                  873.88      open
  7                  380.09      open
  8                 1611.81      open
   
   
  Node Results at 22:45:00 hrs:
  ----------------------------------------------
                     Demand      Head  Pressure
  Node                 m3/h         m         m
  ----------------------------------------------
  1                  128.90    176.63     16.63
  2                  128.90    198.32     48.32
  3                  348.02    155.67      5.67
  4                  154.68    191.55     36.55
  5                  257.79    170.31     10.31
  6                  425.36    185.02     20.02
  7                -1443.64    210.00      0.00  Reservoir
   
   
  Link Results at 22:45:00 hrs:
  ------------------------------------
                       Flow     State
  Link                 m3/h          
  ------------------------------------
  1                  239.01      open
  2                  110.11      open
  3                 1075.74      open
  4                  147.19      open
  5                   90.72      open
  6                  773.87      open
  7                  348.52      open
  8                 1443.64      open
   
   
  Node Results at 22:50:00 hrs:
  ----------------------------------------------
                     Demand      Head  Pressure
  Node                 m3/h         m         m
  ----------------------------------------------
  1                  114.82    183.07     23.07
  2                  114.82    200.58     50.58
  3                  310.02    166.14     16.14
  4                  137.79    195.11     40.11
  5                  229.64    177.96     17.96
  6                  378.91    189.84     24.84
  7                -1286.01    210.00      0.00  Reservoir
   
   
  Link Results at 22:50:00 hrs:
  ------------------------------------
                       Flow     State
  Link                 m3/h          
  ------------------------------------
  1                  212.91      open
  2                   98.09      open
  3                  958.27      open
  4                  131.11      open
  5                   80.81      open
  6                  689.37      open
  7                  310.46      open
  8                 1286.01      open
   
   
  Node Results at 22:55:00 hrs:
  ----------------------------------------------
                     Demand      Head  Pressure
  Node                 m3/h         m         m
  ----------------------------------------------
  1                  116.74    182.23     22.23
  2                  116.74    200.28     50.28
  3                  315.19    164.78     14.78
  4                  140.08    194.65     39.65
  5                  233.47    176.97     16.97
  6                  385.23    189.21     24.21
  7                -1307.44    210.00      0.00  Reservoir
   
   
  Link Results at 22:55:00 hrs:
  ------------------------------------
                       Flow     State
  Link                 m3/h          
  ------------------------------------
  1                  216.46      open
  2                   99.72      open
  3                  974.24      open
  4                  133.30      open
  5                   82.16      open
  6                  700.86      open
  7                  315.63      open
  8                 1307.44      open
   
   
  Node Results at 23:00:00 hrs:
  ----------------------------------------------
                     Demand      Head  Pressure
  Node                 m3/h         m         m
  ----------------------------------------------
  1                  125.92    178.05     18.05
  2                  125.93    198.82     48.82
  3                  340.00    157.97      7.97
  4                  151.11    192.33     37.33
  5                  251.85    171.99     11.99
  6                  415.55    186.08     21.08
  7                -1410.36    210.00      0.00  Reservoir
   
   
  Link Results at 23:00:00 hrs:
  ------------------------------------
                       Flow     State
  Link                 m3/h          
  ------------------------------------
  1                  233.50      open
  2                  107.57      open
  3                 1050.93      open
  4                  143.79      open
  5                   88.63      open
  6                  756.03      open
  7                  340.48      open
  8                 1410.36      open
   
   
  Node Results at 23:05:00 hrs:
  ----------------------------------------------
                     Demand      Head  Pressure
  Node                 m3/h         m         m
  ----------------------------------------------
  1                  117.00    182.11     22.11
  2                  117.00    200.24     50.24
  3                  315.90    164.59     14.59
  4                  140.40    194.58     39.58
  5                  234.00    176.83     16.83
  6                  386.11    189.12     24.12
  7                -1310.42    210.00      0.00  Reservoir
   
   
  Link Results at 23:05:00 hrs:
  ------------------------------------
                       Flow     State
  Link                 m3/h          
  ------------------------------------
  1                  216.95      open
  2                   99.95      open
  3                  976.46      open
  4                  133.60      open
  5                   82.35      open
  6                  702.46      open
  7                  316.35      open
  8                 1310.42      open
   
   
  Node Results at 23:10:00 hrs:
  ----------------------------------------------
                     Demand      Head  Pressure
  Node                 m3/h         m         m
  ----------------------------------------------
  1                   92.93    191.80     31.80
  2                   92.93    203.63     53.63
  3                  250.91    180.36     30.36
  4                  111.51    199.94     44.94
  5                  185.86    188.35     28.35
  6                  306.67    196.37     31.37
  7                -1040.81    210.00      0.00  Reservoir
   
   
  Link Results at 23:10:00 hrs:
  ------------------------------------
                       Flow     State
  Link                 m3/h          
  ------------------------------------
  1                  172.32      open
  2                   79.39      open
  3                  775.56      open
  4                  106.12      open
  5                   65.41      open
  6                  557.93      open
  7                  251.26      open
  8                 1040.81      open
   
   
  Node Results at 23:15:00 hrs:
  ----------------------------------------------
                     Demand      Head  Pressure
  Node                 m3/h         m         m
  ----------------------------------------------
  1                  138.37    172.74     12.74
  2                  138.37    196.87     46.87
  3                  362.15    150.09      0.09
  4                  166.05    189.24     34.24
  5                  276.74    165.45      5.45
  6                  456.62    181.87     16.87
  7                -1538.31    210.00      0.00  Reservoir
   
   
  Link Results at 23:15:00 hrs:
  ------------------------------------
                       Flow     State
  Link                 m3/h          
  ------------------------------------
  1                  253.16      open
  2                  114.79      open
  3                 1146.77      open
  4                  154.28      open
  5                   93.08      open
  6                  826.45      open
  7                  369.82      open
  8                 1538.31      open
   
   
  Node Results at 23:20:00 hrs:
  ----------------------------------------------
                     Demand      Head  Pressure
  Node                 m3/h         m         m
  ----------------------------------------------
  1                  111.38    184.54     24.54
  2                  111.38    201.09     51.09
  3                  300.72    168.55     18.55
  4                  133.65    195.93     40.93
  5                  222.76    179.72     19.72
  6                  367.55    190.94     25.94
  7                -1247.44    210.00      0.00  Reservoir
   
   
  Link Results at 23:20:00 hrs:
  ------------------------------------
                       Flow     State
  Link                 m3/h          
  ------------------------------------
  1                  206.53      open
  2                   95.15      open
  3                  929.54      open
  4                  127.18      open
  5                   78.39      open
  6                  668.70      open
  7                  301.15      open
  8                 1247.44      open
   
   
  Node Results at 23:25:00 hrs:
  ----------------------------------------------
                     Demand      Head  Pressure
  Node                 m3/h         m         m
  ----------------------------------------------
  1                  121.66    180.02     20.02
  2                  121.66    199.51     49.51
  3                  328.48    161.18     11.18
  4                  145.99    193.43     38.43
  5                  243.32    174.34     14.34
  6                  401.48    187.56     22.56
  7                -1362.59    210.00      0.00  Reservoir
   
   
  Link Results at 23:25:00 hrs:
  ------------------------------------
                       Flow     State
  Link                 m3/h          
  ------------------------------------
  1                  225.59      open
  2                  103.93      open
  3                 1015.34      open
  4                  138.92      open
  5                   85.63      open
  6                  730.42      open
  7                  328.95      open
  8                 1362.59      open
   
   
  Node Results at 23:30:00 hrs:
  ----------------------------------------------
                     Demand      Head  Pressure
  Node                 m3/h         m         m
  ----------------------------------------------
  1                  100.53    188.94     28.94
  2                  100.53    202.63     52.63
  3                  271.44    175.71     25.71
  4                  120.64    198.36     43.36
  5                  201.07    184.95     24.95
  6                  331.76    194.24     29.24
  7                -1125.98    210.00      0.00  Reservoir
   
   
  Link Results at 23:30:00 hrs:
  ------------------------------------
                       Flow     State
  Link                 m3/h          
  ------------------------------------
  1                  186.42      open
  2                   85.88      open
  3                  839.03      open
  4                  114.80      open
  5                   70.76      open
  6                  603.59      open
  7                  271.83      open
  8                 1125.98      open
   
   
  Node Results at 23:35:00 hrs:
  ----------------------------------------------
                     Demand      Head  Pressure
  Node                 m3/h         m         m
  ----------------------------------------------
  1                  121.65    180.02     20.02
  2                  121.65    199.51     49.51
  3                  328.46    161.19     11.19
  4                  145.98    193.43     38.43
  5                  243.31    174.35     14.35
  6                  401.46    187.56     22.56
  7                -1362.52    210.00      0.00  Reservoir
   
   
  Link Results at 23:35:00 hrs:
  ------------------------------------
                       Flow     State
  Link                 m3/h          
  ------------------------------------
  1                  225.58      open
  2                  103.93      open
  3                 1015.29      open
  4                  138.92      open
  5                   85.62      open
  6                  730.39      open
  7                  328.93      open
  8                 1362.52      open
   
   
  Node Results at 23:40:00 hrs:
  ----------------------------------------------
                     Demand      Head  Pressure
  Node                 m3/h         m         m
  ----------------------------------------------
  1                  105.67    186.91     26.91
  2                  105.67    201.92     51.92
  3                  285.30    172.40     22.40
  4                  126.80    197.23     42.23
  5                  211.33    182.53     22.53
  6                  348.70    192.71     27.71
  7                -1183.46    210.00      0.00  Reservoir
   
   
  Link Results at 23:40:00 hrs:
  ------------------------------------
                       Flow     State
  Link                 m3/h          
  ------------------------------------
  1                  195.93      open
  2                   90.27      open
  3                  881.86      open
  4                  120.66      open
  5                   74.37      open
  6                  634.40      open
  7                  285.70      open
  8                 1183.46      open
   
   
  Node Results at 23:45:00 hrs:
  ----------------------------------------------
                     Demand      Head  Pressure
  Node                 m3/h         m         m
  ----------------------------------------------
  1                  105.90    186.81     26.81
  2                  105.90    201.89     51.89
  3                  285.92    172.25     22.25
  4                  127.08    197.18     42.18
  5                  211.79    182.42     22.42
  6                  349.46    192.64     27.64
  7                -1186.05    210.00      0.00  Reservoir
   
   
  Link Results at 23:45:00 hrs:
  ------------------------------------
                       Flow     State
  Link                 m3/h          
  ------------------------------------
  1                  196.36      open
  2                   90.47      open
  3                  883.79      open
  4                  120.92      open
  5                   74.53      open
  6                  635.79      open
  7                  286.33      open
  8                 1186.05      open
   
   
  Node Results at 23:50:00 hrs:
  ----------------------------------------------
                     Demand      Head  Pressure
  Node                 m3/h         m         m
  ----------------------------------------------
  1                   86.62    194.02     34.02
  2                   86.62    204.41     54.41
  3                  233.88    183.98     33.98
  4                  103.95    201.16     46.16
  5                  173.25    190.99     30.99
  6                  285.86    198.04     33.04
  7                 -970.18    210.00      0.00  Reservoir
   
   
  Link Results at 23:50:00 hrs:
  ------------------------------------
                       Flow     State
  Link                 m3/h          
  ------------------------------------
  1                  160.62      open
  2                   74.00      open
  3                  722.93      open
  4                   98.91      open
  5                   60.97      open
  6                  520.07      open
  7                  234.21      open
  8                  970.18      open
   
   
  Node Results at 23:55:00 hrs:
  ----------------------------------------------
                     Demand      Head  Pressure
  Node                 m3/h         m         m
  ----------------------------------------------
  1                  104.78    187.26     27.26
  2                  104.78    202.04     52.04
  3                  282.91    172.98     22.98
  4                  125.74    197.43     42.43
  5                  209.56    182.96     22.96
  6                  345.78    192.98     27.98
  7                -1173.56    210.00      0.00  Reservoir
   
   
  Link Results at 23:55:00 hrs:
  ------------------------------------
                       Flow     State
  Link                 m3/h          
  ------------------------------------
  1                  194.30      open
  2                   89.51      open
  3                  874.48      open
  4                  119.65      open
  5                   73.75      open
  6                  629.09      open
  7                  283.31      open
  8                 1173.56      open
   
   
  Node Results at 24:00:00 hrs:
  ----------------------------------------------
                     Demand      Head  Pressure
  Node                 m3/h         m         m
  ----------------------------------------------
  1                  105.88    186.82     26.82
  2                  105.88    201.89     51.89
  3                  285.87    172.26     22.26
  4                  127.05    197.19     42.19
  5                  211.75    182.43     22.43
  6                  349.39    192.65     27.65
  7                -1185.82    210.00      0.00  Reservoir
   
   
  Link Results at 24:00:00 hrs:
  ------------------------------------
                       Flow     State
  Link                 m3/h          
  ------------------------------------
  1                  196.32      open
  2                   90.45      open
  3                  883.62      open
  4                  120.90      open
  5                   74.52      open
  6                  635.66      open
  7                  286.27      open
  8                 1185.82      open
   
  Analysis ended Tue Mar  7 12:01:37 2023
