  Page 1                                    Tue Mar  7 12:01:39 2023

  ******************************************************************
  *                           E P A N E T                          *
  *                   Hydraulic and Water Quality                  *
  *                   Analysis for Pipe Networks                   *
  *                         Version 2.2                            *
  ******************************************************************
  
  Analysis begun Tue Mar  7 12:01:39 2023

   
  Node Results at 0:00:00 hrs:
  ----------------------------------------------
                     Demand      Head  Pressure
  Node                 m3/h         m         m
  ----------------------------------------------
  1                  105.88    186.82     26.82
  2                  105.88    201.89     51.89
  3                  285.87    172.26     22.26
  4                  127.05    197.19     42.19
  5                  211.75    182.43     22.43
  6                  349.39    192.65     27.65
  7                -1185.82    210.00      0.00  Reservoir
   
   
  Link Results at 0:00:00 hrs:
  ------------------------------------
                       Flow     State
  Link                 m3/h          
  ------------------------------------
  1                  196.32      open
  2                   90.45      open
  3                  883.62      open
  4                  120.90      open
  5                   74.52      open
  6                  635.66      open
  7                  286.27      open
  8                 1185.82      open
   
   
  Node Results at 0:15:00 hrs:
  ----------------------------------------------
                     Demand      Head  Pressure
  Node                 m3/h         m         m
  ----------------------------------------------
  1                   82.57    195.38     35.38
  2                   82.57    204.88     54.88
  3                  222.94    186.19     36.19
  4                   99.09    201.91     46.91
  5                  165.14    192.60     32.60
  6                  272.48    199.05     34.05
  7                 -924.80    210.00      0.00  Reservoir
   
   
  Link Results at 0:15:00 hrs:
  ------------------------------------
                       Flow     State
  Link                 m3/h          
  ------------------------------------
  1                  153.11      open
  2                   70.54      open
  3                  689.12      open
  4                   94.29      open
  5                   58.12      open
  6                  495.74      open
  7                  223.26      open
  8                  924.80      open
   
   
  Node Results at 0:30:00 hrs:
  ----------------------------------------------
                     Demand      Head  Pressure
  Node                 m3/h         m         m
  ----------------------------------------------
  1                   78.05    196.82     36.82
  2                   78.05    205.39     55.39
  3                  210.74    188.54     38.54
  4                   93.66    202.71     47.71
  5                  156.10    194.33     34.33
  6                  257.57    200.14     35.14
  7                 -874.18    210.00      0.00  Reservoir
   
   
  Link Results at 0:30:00 hrs:
  ------------------------------------
                       Flow     State
  Link                 m3/h          
  ------------------------------------
  1                  144.73      open
  2                   66.68      open
  3                  651.40      open
  4                   89.13      open
  5                   54.94      open
  6                  468.61      open
  7                  211.04      open
  8                  874.18      open
   
   
  Node Results at 0:45:00 hrs:
  ----------------------------------------------
                     Demand      Head  Pressure
  Node                 m3/h         m         m
  ----------------------------------------------
  1                   79.25    196.44     36.44
  2                   79.25    205.26     55.26
  3                  213.99    187.93     37.93
  4                   95.11    202.51     47.51
  5                  158.51    193.88     33.88
  6                  261.54    199.85     34.85
  7                 -887.65    210.00      0.00  Reservoir
   
   
  Link Results at 0:45:00 hrs:
  ------------------------------------
                       Flow     State
  Link                 m3/h          
  ------------------------------------
  1                  146.96      open
  2                   67.71      open
  3                  661.44      open
  4                   90.50      open
  5                   55.78      open
  6                  475.83      open
  7                  214.29      open
  8                  887.65      open
   
   
  Node Results at 1:00:00 hrs:
  ----------------------------------------------
                     Demand      Head  Pressure
  Node                 m3/h         m         m
  ----------------------------------------------
  1                   71.21    198.88     38.88
  2                   71.21    206.11     56.11
  3                  192.25    191.90     41.90
  4                   85.45    203.85     48.85
  5                  142.41    196.78     36.78
  6                  234.98    201.68     36.68
  7                 -797.50    210.00      0.00  Reservoir
   
   
  Link Results at 1:00:00 hrs:
  ------------------------------------
                       Flow     State
  Link                 m3/h          
  ------------------------------------
  1                  132.03      open
  2                   60.83      open
  3                  594.26      open
  4                   81.31      open
  5                   50.12      open
  6                  427.50      open
  7                  192.53      open
  8                  797.50      open
   
   
  Node Results at 1:15:00 hrs:
  ----------------------------------------------
                     Demand      Head  Pressure
  Node                 m3/h         m         m
  ----------------------------------------------
  1                   50.98    204.01     44.01
  2                   50.98    207.90     57.90
  3                  137.65    200.25     50.25
  4                   61.18    206.69     51.69
  5                  101.96    202.88     42.88
  6                  168.24    205.52     40.52
  7                 -571.00    210.00      0.00  Reservoir
   
   
  Link Results at 1:15:00 hrs:
  ------------------------------------
                       Flow     State
  Link                 m3/h          
  ------------------------------------
  1                   94.54      open
  2                   43.55      open
  3                  425.48      open
  4                   58.22      open
  5                   35.88      open
  6                  306.09      open
  7                  137.85      open
  8                  571.00      open
   
   
  Node Results at 1:30:00 hrs:
  ----------------------------------------------
                     Demand      Head  Pressure
  Node                 m3/h         m         m
  ----------------------------------------------
  1                   59.03    202.15     42.15
  2                   59.03    207.25     57.25
  3                  159.38    197.21     47.21
  4                   70.83    205.66     50.66
  5                  118.06    200.66     40.66
  6                  194.79    204.12     39.12
  7                 -661.12    210.00      0.00  Reservoir
   
   
  Link Results at 1:30:00 hrs:
  ------------------------------------
                       Flow     State
  Link                 m3/h          
  ------------------------------------
  1                  109.46      open
  2                   50.43      open
  3                  492.64      open
  4                   67.40      open
  5                   41.55      open
  6                  354.40      open
  7                  159.60      open
  8                  661.12      open
   
   
  Node Results at 1:45:00 hrs:
  ----------------------------------------------
                     Demand      Head  Pressure
  Node                 m3/h         m         m
  ----------------------------------------------
  1                   51.07    203.99     43.99
  2                   51.07    207.90     57.90
  3                  137.89    200.22     50.22
  4                   61.29    206.68     51.68
  5                  102.14    202.85     42.85
  6                  168.53    205.50     40.50
  7                 -572.00    210.00      0.00  Reservoir
   
   
  Link Results at 1:45:00 hrs:
  ------------------------------------
                       Flow     State
  Link                 m3/h          
  ------------------------------------
  1                   94.70      open
  2                   43.63      open
  3                  426.23      open
  4                   58.32      open
  5                   35.95      open
  6                  306.62      open
  7                  138.09      open
  8                  572.00      open
   
   
  Node Results at 2:00:00 hrs:
  ----------------------------------------------
                     Demand      Head  Pressure
  Node                 m3/h         m         m
  ----------------------------------------------
  1                   49.48    204.33     44.33
  2                   49.48    208.02     58.02
  3                  133.61    200.77     50.77
  4                   59.38    206.87     51.87
  5                   98.97    203.26     43.26
  6                  163.30    205.76     40.76
  7                 -554.22    210.00      0.00  Reservoir
   
   
  Link Results at 2:00:00 hrs:
  ------------------------------------
                       Flow     State
  Link                 m3/h          
  ------------------------------------
  1                   91.76      open
  2                   42.27      open
  3                  412.98      open
  4                   56.51      open
  5                   34.83      open
  6                  297.09      open
  7                  133.80      open
  8                  554.22      open
   
   
  Node Results at 2:15:00 hrs:
  ----------------------------------------------
                     Demand      Head  Pressure
  Node                 m3/h         m         m
  ----------------------------------------------
  1                   50.00    204.22     44.22
  2                   50.00    207.98     57.98
  3                  135.00    200.60     50.60
  4                   60.00    206.81     51.81
  5                  100.00    203.13     43.13
  6                  164.99    205.68     40.68
  7                 -559.98    210.00      0.00  Reservoir
   
   
  Link Results at 2:15:00 hrs:
  ------------------------------------
                       Flow     State
  Link                 m3/h          
  ------------------------------------
  1                   92.71      open
  2                   42.71      open
  3                  417.27      open
  4                   57.09      open
  5                   35.19      open
  6                  300.18      open
  7                  135.19      open
  8                  559.98      open
   
   
  Node Results at 2:30:00 hrs:
  ----------------------------------------------
                     Demand      Head  Pressure
  Node                 m3/h         m         m
  ----------------------------------------------
  1                   46.44    204.96     44.96
  2                   46.44    208.24     58.24
  3                  125.39    201.80     51.80
  4                   55.73    207.22     52.22
  5                   92.88    204.01     44.01
  6                  153.25    206.23     41.23
  7                 -520.12    210.00      0.00  Reservoir
   
   
  Link Results at 2:30:00 hrs:
  ------------------------------------
                       Flow     State
  Link                 m3/h          
  ------------------------------------
  1                   86.11      open
  2                   39.67      open
  3                  387.57      open
  4                   53.03      open
  5                   32.69      open
  6                  278.81      open
  7                  125.56      open
  8                  520.12      open
   
   
  Node Results at 2:45:00 hrs:
  ----------------------------------------------
                     Demand      Head  Pressure
  Node                 m3/h         m         m
  ----------------------------------------------
  1                   49.42    204.35     44.35
  2                   49.42    208.02     58.02
  3                  133.43    200.80     50.80
  4                   59.30    206.88     51.88
  5                   98.83    203.28     43.28
  6                  163.08    205.77     40.77
  7                 -553.47    210.00      0.00  Reservoir
   
   
  Link Results at 2:45:00 hrs:
  ------------------------------------
                       Flow     State
  Link                 m3/h          
  ------------------------------------
  1                   91.63      open
  2                   42.22      open
  3                  412.42      open
  4                   56.43      open
  5                   34.78      open
  6                  296.69      open
  7                  133.62      open
  8                  553.47      open
   
   
  Node Results at 3:00:00 hrs:
  ----------------------------------------------
                     Demand      Head  Pressure
  Node                 m3/h         m         m
  ----------------------------------------------
  1                   43.04    205.62     45.62
  2                   43.04    208.47     58.47
  3                  116.22    202.87     52.87
  4                   51.65    207.58     52.58
  5                   86.09    204.79     44.79
  6                  142.05    206.72     41.72
  7                 -482.10    210.00      0.00  Reservoir
   
   
  Link Results at 3:00:00 hrs:
  ------------------------------------
                       Flow     State
  Link                 m3/h          
  ------------------------------------
  1                   79.82      open
  2                   36.77      open
  3                  359.24      open
  4                   49.15      open
  5                   30.30      open
  6                  258.43      open
  7                  116.38      open
  8                  482.10      open
   
   
  Node Results at 3:15:00 hrs:
  ----------------------------------------------
                     Demand      Head  Pressure
  Node                 m3/h         m         m
  ----------------------------------------------
  1                   36.83    206.72     46.72
  2                   36.83    208.85     58.85
  3                   99.45    204.66     54.66
  4                   44.20    208.19     53.19
  5                   73.67    206.10     46.10
  6                  121.55    207.55     42.55
  7                 -412.53    210.00      0.00  Reservoir
   
   
  Link Results at 3:15:00 hrs:
  ------------------------------------
                       Flow     State
  Link                 m3/h          
  ------------------------------------
  1                   68.30      open
  2                   31.47      open
  3                  307.40      open
  4                   42.06      open
  5                   25.92      open
  6                  221.14      open
  7                   99.59      open
  8                  412.53      open
   
   
  Node Results at 3:30:00 hrs:
  ----------------------------------------------
                     Demand      Head  Pressure
  Node                 m3/h         m         m
  ----------------------------------------------
  1                   34.44    207.10     47.10
  2                   34.44    208.99     58.99
  3                   92.98    205.28     55.28
  4                   41.33    208.40     53.40
  5                   68.88    206.56     46.56
  6                  113.65    207.83     42.83
  7                 -385.71    210.00      0.00  Reservoir
   
   
  Link Results at 3:30:00 hrs:
  ------------------------------------
                       Flow     State
  Link                 m3/h          
  ------------------------------------
  1                   63.86      open
  2                   29.42      open
  3                  287.42      open
  4                   39.33      open
  5                   24.24      open
  6                  206.76      open
  7                   93.12      open
  8                  385.71      open
   
   
  Node Results at 3:45:00 hrs:
  ----------------------------------------------
                     Demand      Head  Pressure
  Node                 m3/h         m         m
  ----------------------------------------------
  1                   31.59    207.53     47.53
  2                   31.59    209.14     59.14
  3                   85.30    205.98     55.98
  4                   37.91    208.64     53.64
  5                   63.19    207.06     47.06
  6                  104.26    208.15     43.15
  7                 -353.84    210.00      0.00  Reservoir
   
   
  Link Results at 3:45:00 hrs:
  ------------------------------------
                       Flow     State
  Link                 m3/h          
  ------------------------------------
  1                   58.58      open
  2                   26.99      open
  3                  263.66      open
  4                   36.08      open
  5                   22.24      open
  6                  189.68      open
  7                   85.42      open
  8                  353.84      open
   
   
  Node Results at 4:00:00 hrs:
  ----------------------------------------------
                     Demand      Head  Pressure
  Node                 m3/h         m         m
  ----------------------------------------------
  1                   34.48    207.10     47.10
  2                   34.48    208.98     58.98
  3                   93.10    205.27     55.27
  4                   41.38    208.40     53.40
  5                   68.96    206.55     46.55
  6                  113.79    207.83     42.83
  7                 -386.20    210.00      0.00  Reservoir
   
   
  Link Results at 4:00:00 hrs:
  ------------------------------------
                       Flow     State
  Link                 m3/h          
  ------------------------------------
  1                   63.94      open
  2                   29.46      open
  3                  287.78      open
  4                   39.37      open
  5                   24.27      open
  6                  207.03      open
  7                   93.23      open
  8                  386.20      open
   
   
  Node Results at 4:15:00 hrs:
  ----------------------------------------------
                     Demand      Head  Pressure
  Node                 m3/h         m         m
  ----------------------------------------------
  1                   31.07    207.61     47.61
  2                   31.07    209.16     59.16
  3                   83.90    206.10     56.10
  4                   37.29    208.68     53.68
  5                   62.15    207.15     47.15
  6                  102.55    208.21     43.21
  7                 -348.04    210.00      0.00  Reservoir
   
   
  Link Results at 4:15:00 hrs:
  ------------------------------------
                       Flow     State
  Link                 m3/h          
  ------------------------------------
  1                   57.62      open
  2                   26.55      open
  3                  259.34      open
  4                   35.48      open
  5                   21.87      open
  6                  186.57      open
  7                   84.02      open
  8                  348.04      open
   
   
  Node Results at 4:30:00 hrs:
  ----------------------------------------------
                     Demand      Head  Pressure
  Node                 m3/h         m         m
  ----------------------------------------------
  1                   35.91    206.87     46.87
  2                   35.91    208.91     58.91
  3                   96.96    204.91     54.91
  4                   43.09    208.27     53.27
  5                   71.82    206.28     46.28
  6                  118.50    207.66     42.66
  7                 -402.20    210.00      0.00  Reservoir
   
   
  Link Results at 4:30:00 hrs:
  ------------------------------------
                       Flow     State
  Link                 m3/h          
  ------------------------------------
  1                   66.59      open
  2                   30.68      open
  3                  299.70      open
  4                   41.01      open
  5                   25.27      open
  6                  215.60      open
  7                   97.10      open
  8                  402.20      open
   
   
  Node Results at 4:45:00 hrs:
  ----------------------------------------------
                     Demand      Head  Pressure
  Node                 m3/h         m         m
  ----------------------------------------------
  1                   34.76    207.05     47.05
  2                   34.76    208.97     58.97
  3                   93.85    205.20     55.20
  4                   41.71    208.37     53.37
  5                   69.52    206.50     46.50
  6                  114.70    207.79     42.79
  7                 -389.30    210.00      0.00  Reservoir
   
   
  Link Results at 4:45:00 hrs:
  ------------------------------------
                       Flow     State
  Link                 m3/h          
  ------------------------------------
  1                   64.45      open
  2                   29.69      open
  3                  290.09      open
  4                   39.69      open
  5                   24.46      open
  6                  208.68      open
  7                   93.98      open
  8                  389.30      open
   
   
  Node Results at 5:00:00 hrs:
  ----------------------------------------------
                     Demand      Head  Pressure
  Node                 m3/h         m         m
  ----------------------------------------------
  1                   29.79    207.79     47.79
  2                   29.79    209.23     59.23
  3                   80.43    206.40     56.40
  4                   35.75    208.78     53.78
  5                   59.58    207.37     47.37
  6                   98.30    208.34     43.34
  7                 -333.63    210.00      0.00  Reservoir
   
   
  Link Results at 5:00:00 hrs:
  ------------------------------------
                       Flow     State
  Link                 m3/h          
  ------------------------------------
  1                   55.24      open
  2                   25.45      open
  3                  248.60      open
  4                   34.01      open
  5                   20.97      open
  6                  178.84      open
  7                   80.54      open
  8                  333.63      open
   
   
  Node Results at 5:15:00 hrs:
  ----------------------------------------------
                     Demand      Head  Pressure
  Node                 m3/h         m         m
  ----------------------------------------------
  1                   42.77    205.68     45.68
  2                   42.77    208.49     58.49
  3                  115.48    202.96     52.96
  4                   51.32    207.61     52.61
  5                   85.54    204.86     44.86
  6                  141.14    206.76     41.76
  7                 -479.01    210.00      0.00  Reservoir
   
   
  Link Results at 5:15:00 hrs:
  ------------------------------------
                       Flow     State
  Link                 m3/h          
  ------------------------------------
  1                   79.30      open
  2                   36.54      open
  3                  356.93      open
  4                   48.84      open
  5                   30.10      open
  6                  256.78      open
  7                  115.64      open
  8                  479.01      open
   
   
  Node Results at 5:30:00 hrs:
  ----------------------------------------------
                     Demand      Head  Pressure
  Node                 m3/h         m         m
  ----------------------------------------------
  1                   43.72    205.49     45.49
  2                   43.72    208.42     58.42
  3                  118.05    202.66     52.66
  4                   52.47    207.51     52.51
  5                   87.45    204.64     44.64
  6                  144.29    206.63     41.63
  7                 -489.70    210.00      0.00  Reservoir
   
   
  Link Results at 5:30:00 hrs:
  ------------------------------------
                       Flow     State
  Link                 m3/h          
  ------------------------------------
  1                   81.07      open
  2                   37.35      open
  3                  364.90      open
  4                   49.93      open
  5                   30.77      open
  6                  262.51      open
  7                  118.22      open
  8                  489.70      open
   
   
  Node Results at 5:45:00 hrs:
  ----------------------------------------------
                     Demand      Head  Pressure
  Node                 m3/h         m         m
  ----------------------------------------------
  1                   39.55    206.26     46.26
  2                   39.55    208.69     58.69
  3                  106.79    203.91     53.91
  4                   47.46    207.93     52.93
  5                   79.10    205.55     45.55
  6                  130.52    207.20     42.20
  7                 -442.97    210.00      0.00  Reservoir
   
   
  Link Results at 5:45:00 hrs:
  ------------------------------------
                       Flow     State
  Link                 m3/h          
  ------------------------------------
  1                   73.34      open
  2                   33.79      open
  3                  330.08      open
  4                   45.16      open
  5                   27.84      open
  6                  237.46      open
  7                  106.94      open
  8                  442.97      open
   
   
  Node Results at 6:00:00 hrs:
  ----------------------------------------------
                     Demand      Head  Pressure
  Node                 m3/h         m         m
  ----------------------------------------------
  1                   61.35    201.56     41.56
  2                   61.35    207.05     57.05
  3                  165.64    196.26     46.26
  4                   73.62    205.34     50.34
  5                  122.70    199.97     39.97
  6                  202.45    203.68     38.68
  7                 -687.11    210.00      0.00  Reservoir
   
   
  Link Results at 6:00:00 hrs:
  ------------------------------------
                       Flow     State
  Link                 m3/h          
  ------------------------------------
  1                  113.76      open
  2                   52.41      open
  3                  512.00      open
  4                   70.05      open
  5                   43.18      open
  6                  368.33      open
  7                  165.88      open
  8                  687.11      open
   
   
  Node Results at 6:15:00 hrs:
  ----------------------------------------------
                     Demand      Head  Pressure
  Node                 m3/h         m         m
  ----------------------------------------------
  1                   54.38    203.25     43.25
  2                   54.38    207.64     57.64
  3                  146.82    199.01     49.01
  4                   65.25    206.27     51.27
  5                  108.76    201.97     41.97
  6                  179.45    204.95     39.95
  7                 -609.04    210.00      0.00  Reservoir
   
   
  Link Results at 6:15:00 hrs:
  ------------------------------------
                       Flow     State
  Link                 m3/h          
  ------------------------------------
  1                  100.83      open
  2                   46.45      open
  3                  453.83      open
  4                   62.10      open
  5                   38.27      open
  6                  326.48      open
  7                  147.03      open
  8                  609.04      open
   
   
  Node Results at 6:30:00 hrs:
  ----------------------------------------------
                     Demand      Head  Pressure
  Node                 m3/h         m         m
  ----------------------------------------------
  1                   82.08    195.54     35.54
  2                   82.08    204.94     54.94
  3                  221.61    186.45     36.45
  4                   98.49    202.00     47.00
  5                  164.15    192.80     32.80
  6                  270.85    199.17     34.17
  7                 -919.26    210.00      0.00  Reservoir
   
   
  Link Results at 6:30:00 hrs:
  ------------------------------------
                       Flow     State
  Link                 m3/h          
  ------------------------------------
  1                  152.20      open
  2                   70.12      open
  3                  684.99      open
  4                   93.72      open
  5                   57.77      open
  6                  492.78      open
  7                  221.92      open
  8                  919.26      open
   
   
  Node Results at 6:45:00 hrs:
  ----------------------------------------------
                     Demand      Head  Pressure
  Node                 m3/h         m         m
  ----------------------------------------------
  1                   99.52    189.33     29.33
  2                   99.52    202.77     52.77
  3                  268.71    176.35     26.35
  4                  119.43    198.57     43.57
  5                  199.05    185.42     25.42
  6                  328.42    194.53     29.53
  7                -1114.65    210.00      0.00  Reservoir
   
   
  Link Results at 6:45:00 hrs:
  ------------------------------------
                       Flow     State
  Link                 m3/h          
  ------------------------------------
  1                  184.54      open
  2                   85.02      open
  3                  830.59      open
  4                  113.64      open
  5                   70.05      open
  6                  597.52      open
  7                  269.09      open
  8                 1114.65      open
   
   
  Node Results at 7:00:00 hrs:
  ----------------------------------------------
                     Demand      Head  Pressure
  Node                 m3/h         m         m
  ----------------------------------------------
  1                  138.39    172.73     12.73
  2                  138.39    196.87     46.87
  3                  362.11    150.09      0.09
  4                  166.07    189.24     34.24
  5                  276.79    165.44      5.44
  6                  456.70    181.86     16.86
  7                -1538.45    210.00      0.00  Reservoir
   
   
  Link Results at 7:00:00 hrs:
  ------------------------------------
                       Flow     State
  Link                 m3/h          
  ------------------------------------
  1                  253.18      open
  2                  114.78      open
  3                 1146.89      open
  4                  154.27      open
  5                   93.06      open
  6                  826.54      open
  7                  369.84      open
  8                 1538.45      open
   
   
  Node Results at 7:15:00 hrs:
  ----------------------------------------------
                     Demand      Head  Pressure
  Node                 m3/h         m         m
  ----------------------------------------------
  1                  155.03    169.58      9.58
  2                  155.03    195.11     45.11
  3                  328.64    150.06      0.06
  4                  186.03    186.42     31.42
  5                  310.05    160.21      0.21
  6                  511.58    177.86     12.86
  7                -1646.35    210.00      0.00  Reservoir
   
   
  Link Results at 7:15:00 hrs:
  ------------------------------------
                       Flow     State
  Link                 m3/h          
  ------------------------------------
  1                  260.98      open
  2                  105.95      open
  3                 1230.35      open
  4                  148.25      open
  5                   74.44      open
  6                  896.07      open
  7                  384.49      open
  8                 1646.35      open
   
   
  Node Results at 7:30:00 hrs:
  ----------------------------------------------
                     Demand      Head  Pressure
  Node                 m3/h         m         m
  ----------------------------------------------
  1                  148.97    170.73     10.73
  2                  148.97    195.75     45.75
  3                  341.30    150.07      0.07
  4                  178.76    187.46     32.46
  5                  297.93    162.10      2.10
  6                  491.59    179.33     14.33
  7                -1607.51    210.00      0.00  Reservoir
   
   
  Link Results at 7:30:00 hrs:
  ------------------------------------
                       Flow     State
  Link                 m3/h          
  ------------------------------------
  1                  258.20      open
  2                  109.23      open
  3                 1200.35      open
  4                  150.48      open
  5                   81.59      open
  6                  871.11      open
  7                  379.52      open
  8                 1607.51      open
   
   
  Node Results at 7:45:00 hrs:
  ----------------------------------------------
                     Demand      Head  Pressure
  Node                 m3/h         m         m
  ----------------------------------------------
  1                  160.73    168.64      8.64
  2                  160.73    194.69     44.69
  3                  323.99    150.06      0.06
  4                  192.88    185.80     30.80
  5                  302.31    160.09      0.09
  6                  530.41    177.04     12.04
  7                -1671.07    210.00      0.00  Reservoir
   
   
  Link Results at 7:45:00 hrs:
  ------------------------------------
                       Flow     State
  Link                 m3/h          
  ------------------------------------
  1                  263.89      open
  2                  103.16      open
  3                 1246.44      open
  4                  146.87      open
  5                   73.96      open
  6                  906.69      open
  7                  376.28      open
  8                 1671.07      open
   
   
  Node Results at 8:00:00 hrs:
  ----------------------------------------------
                     Demand      Head  Pressure
  Node                 m3/h         m         m
  ----------------------------------------------
  1                  145.80    171.33     11.33
  2                  145.80    196.09     46.09
  3                  347.71    150.08      0.08
  4                  174.95    187.99     32.99
  5                  291.59    163.10      3.10
  6                  481.12    180.09     15.09
  7                -1586.97    210.00      0.00  Reservoir
   
   
  Link Results at 8:00:00 hrs:
  ------------------------------------
                       Flow     State
  Link                 m3/h          
  ------------------------------------
  1                  256.72      open
  2                  110.92      open
  3                 1184.45      open
  4                  151.63      open
  5                   85.15      open
  6                  857.87      open
  7                  376.74      open
  8                 1586.97      open
   
   
  Node Results at 8:15:00 hrs:
  ----------------------------------------------
                     Demand      Head  Pressure
  Node                 m3/h         m         m
  ----------------------------------------------
  1                  130.25    175.98     15.98
  2                  130.25    198.10     48.10
  3                  351.68    154.61      4.61
  4                  156.30    191.19     36.19
  5                  260.50    169.54      9.54
  6                  429.83    184.53     19.53
  7                -1458.82    210.00      0.00  Reservoir
   
   
  Link Results at 8:15:00 hrs:
  ------------------------------------
                       Flow     State
  Link                 m3/h          
  ------------------------------------
  1                  241.52      open
  2                  111.27      open
  3                 1087.05      open
  4                  148.73      open
  5                   91.68      open
  6                  782.01      open
  7                  352.18      open
  8                 1458.82      open
   
   
  Node Results at 8:30:00 hrs:
  ----------------------------------------------
                     Demand      Head  Pressure
  Node                 m3/h         m         m
  ----------------------------------------------
  1                  157.11    169.23      9.23
  2                  157.11    194.95     44.95
  3                  326.61    150.06      0.06
  4                  188.53    186.18     31.18
  5                  308.08    160.10      0.10
  6                  518.46    177.53     12.53
  7                -1655.91    210.00      0.00  Reservoir
   
   
  Link Results at 8:30:00 hrs:
  ------------------------------------
                       Flow     State
  Link                 m3/h          
  ------------------------------------
  1                  262.03      open
  2                  104.92      open
  3                 1236.77      open
  4                  147.71      open
  5                   73.98      open
  6                  900.53      open
  7                  382.06      open
  8                 1655.91      open
   
   
  Node Results at 8:45:00 hrs:
  ----------------------------------------------
                     Demand      Head  Pressure
  Node                 m3/h         m         m
  ----------------------------------------------
  1                  164.26    168.06      8.06
  2                  164.26    194.44     44.44
  3                  321.42    150.05      0.05
  4                  197.12    185.42     30.42
  5                  296.62    160.08      0.08
  6                  542.07    176.56     11.56
  7                -1685.75    210.00      0.00  Reservoir
   
   
  Link Results at 8:45:00 hrs:
  ------------------------------------
                       Flow     State
  Link                 m3/h          
  ------------------------------------
  1                  265.69      open
  2                  101.42      open
  3                 1255.80      open
  4                  146.05      open
  5                   73.95      open
  6                  912.63      open
  7                  370.56      open
  8                 1685.75      open
   
   
  Node Results at 9:00:00 hrs:
  ----------------------------------------------
                     Demand      Head  Pressure
  Node                 m3/h         m         m
  ----------------------------------------------
  1                  179.68    165.55      5.55
  2                  179.68    193.35     43.35
  3                  309.88    150.04      0.04
  4                  215.62    183.79     28.79
  5                  270.85    160.06      0.06
  6                  592.96    174.47      9.47
  7                -1748.68    210.00      0.00  Reservoir
   
   
  Link Results at 9:00:00 hrs:
  ------------------------------------
                       Flow     State
  Link                 m3/h          
  ------------------------------------
  1                  273.27      open
  2                   93.58      open
  3                 1295.73      open
  4                  142.40      open
  5                   73.90      open
  6                  937.71      open
  7                  344.75      open
  8                 1748.68      open
   
   
  Node Results at 9:15:00 hrs:
  ----------------------------------------------
                     Demand      Head  Pressure
  Node                 m3/h         m         m
  ----------------------------------------------
  1                  177.11    165.97      5.97
  2                  177.11    193.53     43.53
  3                  311.83    150.04      0.04
  4                  212.54    184.06     29.06
  5                  275.25    160.06      0.06
  6                  584.48    174.82      9.82
  7                -1738.32    210.00      0.00  Reservoir
   
   
  Link Results at 9:15:00 hrs:
  ------------------------------------
                       Flow     State
  Link                 m3/h          
  ------------------------------------
  1                  272.03      open
  2                   94.92      open
  3                 1289.18      open
  4                  143.01      open
  5                   73.90      open
  6                  933.63      open
  7                  349.15      open
  8                 1738.32      open
   
   
  Node Results at 9:30:00 hrs:
  ----------------------------------------------
                     Demand      Head  Pressure
  Node                 m3/h         m         m
  ----------------------------------------------
  1                  149.92    170.55     10.55
  2                  149.92    195.65     45.65
  3                  339.34    150.07      0.07
  4                  179.91    187.29     32.29
  5                  299.84    161.80      1.80
  6                  494.74    179.10     14.10
  7                -1613.68    210.00      0.00  Reservoir
   
   
  Link Results at 9:30:00 hrs:
  ------------------------------------
                       Flow     State
  Link                 m3/h          
  ------------------------------------
  1                  258.64      open
  2                  108.72      open
  3                 1205.11      open
  4                  150.13      open
  5                   80.49      open
  6                  875.08      open
  7                  380.33      open
  8                 1613.68      open
   
   
  Node Results at 9:45:00 hrs:
  ----------------------------------------------
                     Demand      Head  Pressure
  Node                 m3/h         m         m
  ----------------------------------------------
  1                  148.71    170.78     10.78
  2                  148.71    195.78     45.78
  3                  341.83    150.07      0.07
  4                  178.45    187.50     32.50
  5                  297.41    162.19      2.19
  6                  490.73    179.39     14.39
  7                -1605.83    210.00      0.00  Reservoir
   
   
  Link Results at 9:45:00 hrs:
  ------------------------------------
                       Flow     State
  Link                 m3/h          
  ------------------------------------
  1                  258.08      open
  2                  109.37      open
  3                 1199.05      open
  4                  150.58      open
  5                   81.88      open
  6                  870.02      open
  7                  379.29      open
  8                 1605.83      open
   
   
  Node Results at 10:00:00 hrs:
  ----------------------------------------------
                     Demand      Head  Pressure
  Node                 m3/h         m         m
  ----------------------------------------------
  1                  134.27    174.01     14.01
  2                  134.27    197.41     47.41
  3                  362.53    151.40      1.40
  4                  161.13    190.10     35.10
  5                  268.54    167.20      7.20
  6                  443.10    183.06     18.06
  7                -1503.84    210.00      0.00  Reservoir
   
   
  Link Results at 10:00:00 hrs:
  ------------------------------------
                       Flow     State
  Link                 m3/h          
  ------------------------------------
  1                  248.98      open
  2                  114.71      open
  3                 1120.59      open
  4                  153.32      open
  5                   94.50      open
  6                  806.14      open
  7                  363.05      open
  8                 1503.84      open
   
   
  Node Results at 10:15:00 hrs:
  ----------------------------------------------
                     Demand      Head  Pressure
  Node                 m3/h         m         m
  ----------------------------------------------
  1                  125.08    178.44     18.44
  2                  125.08    198.96     48.96
  3                  337.73    158.61      8.61
  4                  150.10    192.55     37.55
  5                  250.17    172.46     12.46
  6                  412.78    186.37     21.37
  7                -1400.94    210.00      0.00  Reservoir
   
   
  Link Results at 10:15:00 hrs:
  ------------------------------------
                       Flow     State
  Link                 m3/h          
  ------------------------------------
  1                  231.94      open
  2                  106.86      open
  3                 1043.91      open
  4                  142.83      open
  5                   88.04      open
  6                  750.98      open
  7                  338.20      open
  8                 1400.94      open
   
   
  Node Results at 10:30:00 hrs:
  ----------------------------------------------
                     Demand      Head  Pressure
  Node                 m3/h         m         m
  ----------------------------------------------
  1                  116.84    182.18     22.18
  2                  116.84    200.27     50.27
  3                  315.46    164.71     14.71
  4                  140.20    194.62     39.62
  5                  233.67    176.92     16.92
  6                  385.56    189.18     24.18
  7                -1308.58    210.00      0.00  Reservoir
   
   
  Link Results at 10:30:00 hrs:
  ------------------------------------
                       Flow     State
  Link                 m3/h          
  ------------------------------------
  1                  216.65      open
  2                   99.81      open
  3                  975.09      open
  4                  133.42      open
  5                   82.23      open
  6                  701.47      open
  7                  315.91      open
  8                 1308.58      open
   
   
  Node Results at 10:45:00 hrs:
  ----------------------------------------------
                     Demand      Head  Pressure
  Node                 m3/h         m         m
  ----------------------------------------------
  1                  161.96    168.43      8.43
  2                  161.96    194.60     44.60
  3                  323.10    150.05      0.05
  4                  194.36    185.67     30.67
  5                  300.33    160.09      0.09
  6                  534.48    176.87     11.87
  7                -1676.20    210.00      0.00  Reservoir
   
   
  Link Results at 10:45:00 hrs:
  ------------------------------------
                       Flow     State
  Link                 m3/h          
  ------------------------------------
  1                  264.52      open
  2                  102.56      open
  3                 1249.71      open
  4                  146.58      open
  5                   73.96      open
  6                  908.77      open
  7                  374.29      open
  8                 1676.20      open
   
   
  Node Results at 11:00:00 hrs:
  ----------------------------------------------
                     Demand      Head  Pressure
  Node                 m3/h         m         m
  ----------------------------------------------
  1                  123.37    179.23     19.23
  2                  123.37    199.23     49.23
  3                  333.11    159.90      9.90
  4                  148.05    192.99     37.99
  5                  246.75    173.41     13.41
  6                  407.14    186.97     21.97
  7                -1381.79    210.00      0.00  Reservoir
   
   
  Link Results at 11:00:00 hrs:
  ------------------------------------
                       Flow     State
  Link                 m3/h          
  ------------------------------------
  1                  228.77      open
  2                  105.40      open
  3                 1029.65      open
  4                  140.88      open
  5                   86.83      open
  6                  740.72      open
  7                  333.58      open
  8                 1381.79      open
   
   
  Node Results at 11:15:00 hrs:
  ----------------------------------------------
                     Demand      Head  Pressure
  Node                 m3/h         m         m
  ----------------------------------------------
  1                  119.08    181.19     21.19
  2                  119.08    199.92     49.92
  3                  321.52    163.08     13.08
  4                  142.90    194.07     39.07
  5                  238.16    175.73     15.73
  6                  392.97    188.43     23.43
  7                -1333.70    210.00      0.00  Reservoir
   
   
  Link Results at 11:15:00 hrs:
  ------------------------------------
                       Flow     State
  Link                 m3/h          
  ------------------------------------
  1                  220.81      open
  2                  101.73      open
  3                  993.81      open
  4                  135.98      open
  5                   83.81      open
  6                  714.94      open
  7                  321.97      open
  8                 1333.70      open
   
   
  Node Results at 11:30:00 hrs:
  ----------------------------------------------
                     Demand      Head  Pressure
  Node                 m3/h         m         m
  ----------------------------------------------
  1                  104.35    187.44     27.44
  2                  104.35    202.11     52.11
  3                  281.73    173.26     23.26
  4                  125.22    197.53     42.53
  5                  208.69    183.17     23.17
  6                  344.34    193.11     28.11
  7                -1168.67    210.00      0.00  Reservoir
   
   
  Link Results at 11:30:00 hrs:
  ------------------------------------
                       Flow     State
  Link                 m3/h          
  ------------------------------------
  1                  193.49      open
  2                   89.14      open
  3                  870.84      open
  4                  119.15      open
  5                   73.44      open
  6                  626.47      open
  7                  282.13      open
  8                 1168.67      open
   
   
  Node Results at 11:45:00 hrs:
  ----------------------------------------------
                     Demand      Head  Pressure
  Node                 m3/h         m         m
  ----------------------------------------------
  1                  123.29    179.27     19.27
  2                  123.29    199.25     49.25
  3                  332.89    159.96      9.96
  4                  147.95    193.01     38.01
  5                  246.59    173.45     13.45
  6                  406.87    187.00     22.00
  7                -1380.90    210.00      0.00  Reservoir
   
   
  Link Results at 11:45:00 hrs:
  ------------------------------------
                       Flow     State
  Link                 m3/h          
  ------------------------------------
  1                  228.62      open
  2                  105.33      open
  3                 1028.98      open
  4                  140.79      open
  5                   86.78      open
  6                  740.24      open
  7                  333.37      open
  8                 1380.90      open
   
   
  Node Results at 12:00:00 hrs:
  ----------------------------------------------
                     Demand      Head  Pressure
  Node                 m3/h         m         m
  ----------------------------------------------
  1                   92.25    192.04     32.04
  2                   92.25    203.72     53.72
  3                  249.07    180.76     30.76
  4                  110.70    200.07     45.07
  5                  184.49    188.64     28.64
  6                  304.42    196.56     31.56
  7                -1033.17    210.00      0.00  Reservoir
   
   
  Link Results at 12:00:00 hrs:
  ------------------------------------
                       Flow     State
  Link                 m3/h          
  ------------------------------------
  1                  171.05      open
  2                   78.80      open
  3                  769.87      open
  4                  105.34      open
  5                   64.93      open
  6                  553.84      open
  7                  249.42      open
  8                 1033.17      open
   
   
  Node Results at 12:15:00 hrs:
  ----------------------------------------------
                     Demand      Head  Pressure
  Node                 m3/h         m         m
  ----------------------------------------------
  1                  103.97    187.59     27.59
  2                  103.97    202.16     52.16
  3                  280.71    173.51     23.51
  4                  124.76    197.61     42.61
  5                  207.93    183.35     23.35
  6                  343.09    193.23     28.23
  7                -1164.43    210.00      0.00  Reservoir
   
   
  Link Results at 12:15:00 hrs:
  ------------------------------------
                       Flow     State
  Link                 m3/h          
  ------------------------------------
  1                  192.78      open
  2                   88.82      open
  3                  867.68      open
  4                  118.72      open
  5                   73.17      open
  6                  624.20      open
  7                  281.11      open
  8                 1164.43      open
   
   
  Node Results at 12:30:00 hrs:
  ----------------------------------------------
                     Demand      Head  Pressure
  Node                 m3/h         m         m
  ----------------------------------------------
  1                   93.97    191.42     31.42
  2                   93.97    203.50     53.50
  3                  253.72    179.74     29.74
  4                  112.77    199.73     44.73
  5                  187.94    187.90     27.90
  6                  310.11    196.09     31.09
  7                -1052.48    210.00      0.00  Reservoir
   
   
  Link Results at 12:30:00 hrs:
  ------------------------------------
                       Flow     State
  Link                 m3/h          
  ------------------------------------
  1                  174.25      open
  2                   80.28      open
  3                  784.26      open
  4                  107.31      open
  5                   66.14      open
  6                  564.19      open
  7                  254.08      open
  8                 1052.48      open
   
   
  Node Results at 12:45:00 hrs:
  ----------------------------------------------
                     Demand      Head  Pressure
  Node                 m3/h         m         m
  ----------------------------------------------
  1                  105.01    187.18     27.18
  2                  105.01    202.01     52.01
  3                  283.51    172.83     22.83
  4                  126.01    197.38     42.38
  5                  210.01    182.85     22.85
  6                  346.52    192.91     27.91
  7                -1176.06    210.00      0.00  Reservoir
   
   
  Link Results at 12:45:00 hrs:
  ------------------------------------
                       Flow     State
  Link                 m3/h          
  ------------------------------------
  1                  194.71      open
  2                   89.70      open
  3                  876.35      open
  4                  119.90      open
  5                   73.91      open
  6                  630.44      open
  7                  283.92      open
  8                 1176.06      open
   
   
  Node Results at 13:00:00 hrs:
  ----------------------------------------------
                     Demand      Head  Pressure
  Node                 m3/h         m         m
  ----------------------------------------------
  1                   94.89    191.08     31.08
  2                   94.89    203.38     53.38
  3                  256.21    179.19     29.19
  4                  113.87    199.54     44.54
  5                  189.78    187.49     27.49
  6                  313.14    195.84     30.84
  7                -1062.79    210.00      0.00  Reservoir
   
   
  Link Results at 13:00:00 hrs:
  ------------------------------------
                       Flow     State
  Link                 m3/h          
  ------------------------------------
  1                  175.96      open
  2                   81.06      open
  3                  791.94      open
  4                  108.36      open
  5                   66.79      open
  6                  569.71      open
  7                  256.57      open
  8                 1062.79      open
   
   
  Node Results at 13:15:00 hrs:
  ----------------------------------------------
                     Demand      Head  Pressure
  Node                 m3/h         m         m
  ----------------------------------------------
  1                   88.13    193.50     33.50
  2                   88.13    204.23     54.23
  3                  237.96    183.13     33.13
  4                  105.76    200.88     45.88
  5                  176.27    190.37     30.37
  6                  290.84    197.65     32.65
  7                 -987.09    210.00      0.00  Reservoir
   
   
  Link Results at 13:15:00 hrs:
  ------------------------------------
                       Flow     State
  Link                 m3/h          
  ------------------------------------
  1                  163.42      open
  2                   75.29      open
  3                  735.54      open
  4                  100.64      open
  5                   62.03      open
  6                  529.14      open
  7                  238.30      open
  8                  987.09      open
   
   
  Node Results at 13:30:00 hrs:
  ----------------------------------------------
                     Demand      Head  Pressure
  Node                 m3/h         m         m
  ----------------------------------------------
  1                  100.07    189.12     29.12
  2                  100.07    202.69     52.69
  3                  270.19    176.00     26.00
  4                  120.09    198.46     43.46
  5                  200.14    185.17     25.17
  6                  330.23    194.37     29.37
  7                -1120.80    210.00      0.00  Reservoir
   
   
  Link Results at 13:30:00 hrs:
  ------------------------------------
                       Flow     State
  Link                 m3/h          
  ------------------------------------
  1                  185.56      open
  2                   85.49      open
  3                  835.17      open
  4                  114.27      open
  5                   70.43      open
  6                  600.81      open
  7                  270.58      open
  8                 1120.80      open
   
   
  Node Results at 13:45:00 hrs:
  ----------------------------------------------
                     Demand      Head  Pressure
  Node                 m3/h         m         m
  ----------------------------------------------
  1                  104.91    187.21     27.21
  2                  104.91    202.03     52.03
  3                  283.25    172.90     22.90
  4                  125.89    197.40     42.40
  5                  209.82    182.90     22.90
  6                  346.20    192.94     27.94
  7                -1174.97    210.00      0.00  Reservoir
   
   
  Link Results at 13:45:00 hrs:
  ------------------------------------
                       Flow     State
  Link                 m3/h          
  ------------------------------------
  1                  194.53      open
  2                   89.62      open
  3                  875.54      open
  4                  119.79      open
  5                   73.84      open
  6                  629.85      open
  7                  283.66      open
  8                 1174.97      open
   
   
  Node Results at 14:00:00 hrs:
  ----------------------------------------------
                     Demand      Head  Pressure
  Node                 m3/h         m         m
  ----------------------------------------------
  1                  100.67    188.89     28.89
  2                  100.67    202.61     52.61
  3                  271.80    175.63     25.63
  4                  120.80    198.33     43.33
  5                  201.33    184.89     24.89
  6                  332.20    194.20     29.20
  7                -1127.45    210.00      0.00  Reservoir
   
   
  Link Results at 14:00:00 hrs:
  ------------------------------------
                       Flow     State
  Link                 m3/h          
  ------------------------------------
  1                  186.66      open
  2                   86.00      open
  3                  840.12      open
  4                  114.95      open
  5                   70.85      open
  6                  604.38      open
  7                  272.18      open
  8                 1127.45      open
   
   
  Node Results at 14:15:00 hrs:
  ----------------------------------------------
                     Demand      Head  Pressure
  Node                 m3/h         m         m
  ----------------------------------------------
  1                  101.08    188.73     28.73
  2                  101.08    202.56     52.56
  3                  272.91    175.37     25.37
  4                  121.29    198.24     43.24
  5                  202.15    184.70     24.70
  6                  333.56    194.08     29.08
  7                -1132.07    210.00      0.00  Reservoir
   
   
  Link Results at 14:15:00 hrs:
  ------------------------------------
                       Flow     State
  Link                 m3/h          
  ------------------------------------
  1                  187.43      open
  2                   86.35      open
  3                  843.56      open
  4                  115.42      open
  5                   71.14      open
  6                  606.85      open
  7                  273.30      open
  8                 1132.07      open
   
   
  Node Results at 14:30:00 hrs:
  ----------------------------------------------
                     Demand      Head  Pressure
  Node                 m3/h         m         m
  ----------------------------------------------
  1                   89.32    193.08     33.08
  2                   89.32    204.08     54.08
  3                  241.17    182.46     32.46
  4                  107.19    200.65     45.65
  5                  178.64    189.88     29.88
  6                  294.76    197.34     32.34
  7                -1000.39    210.00      0.00  Reservoir
   
   
  Link Results at 14:30:00 hrs:
  ------------------------------------
                       Flow     State
  Link                 m3/h          
  ------------------------------------
  1                  165.63      open
  2                   76.30      open
  3                  745.45      open
  4                  102.00      open
  5                   62.87      open
  6                  536.27      open
  7                  241.51      open
  8                 1000.39      open
   
   
  Node Results at 14:45:00 hrs:
  ----------------------------------------------
                     Demand      Head  Pressure
  Node                 m3/h         m         m
  ----------------------------------------------
  1                   89.09    193.16     33.16
  2                   89.09    204.11     54.11
  3                  240.55    182.59     32.59
  4                  106.91    200.69     45.69
  5                  178.19    189.98     29.98
  6                  294.01    197.40     32.40
  7                 -997.84    210.00      0.00  Reservoir
   
   
  Link Results at 14:45:00 hrs:
  ------------------------------------
                       Flow     State
  Link                 m3/h          
  ------------------------------------
  1                  165.20      open
  2                   76.11      open
  3                  743.54      open
  4                  101.73      open
  5                   62.71      open
  6                  534.90      open
  7                  240.89      open
  8                  997.84      open
   
   
  Node Results at 15:00:00 hrs:
  ----------------------------------------------
                     Demand      Head  Pressure
  Node                 m3/h         m         m
  ----------------------------------------------
  1                   83.95    194.92     34.92
  2                   83.95    204.72     54.72
  3                  226.66    185.45     35.45
  4                  100.74    201.66     46.66
  5                  167.90    192.06     32.06
  6                  277.03    198.71     33.71
  7                 -940.22    210.00      0.00  Reservoir
   
   
  Link Results at 15:00:00 hrs:
  ------------------------------------
                       Flow     State
  Link                 m3/h          
  ------------------------------------
  1                  155.66      open
  2                   71.71      open
  3                  700.61      open
  4                   95.86      open
  5                   59.08      open
  6                  504.01      open
  7                  226.98      open
  8                  940.22      open
   
   
  Node Results at 15:15:00 hrs:
  ----------------------------------------------
                     Demand      Head  Pressure
  Node                 m3/h         m         m
  ----------------------------------------------
  1                   85.38    194.44     34.44
  2                   85.38    204.56     54.56
  3                  230.53    184.66     34.66
  4                  102.46    201.40     46.40
  5                  170.77    191.49     31.49
  6                  281.76    198.35     33.35
  7                 -956.29    210.00      0.00  Reservoir
   
   
  Link Results at 15:15:00 hrs:
  ------------------------------------
                       Flow     State
  Link                 m3/h          
  ------------------------------------
  1                  158.32      open
  2                   72.94      open
  3                  712.58      open
  4                   97.50      open
  5                   60.10      open
  6                  512.62      open
  7                  230.86      open
  8                  956.29      open
   
   
  Node Results at 15:30:00 hrs:
  ----------------------------------------------
                     Demand      Head  Pressure
  Node                 m3/h         m         m
  ----------------------------------------------
  1                   81.00    195.89     35.89
  2                   81.00    205.06     55.06
  3                  218.69    187.02     37.02
  4                   97.19    202.20     47.20
  5                  161.99    193.21     33.21
  6                  267.28    199.44     34.44
  7                 -907.15    210.00      0.00  Reservoir
   
   
  Link Results at 15:30:00 hrs:
  ------------------------------------
                       Flow     State
  Link                 m3/h          
  ------------------------------------
  1                  150.19      open
  2                   69.19      open
  3                  675.96      open
  4                   92.49      open
  5                   57.01      open
  6                  486.28      open
  7                  219.00      open
  8                  907.15      open
   
   
  Node Results at 15:45:00 hrs:
  ----------------------------------------------
                     Demand      Head  Pressure
  Node                 m3/h         m         m
  ----------------------------------------------
  1                   73.37    198.25     38.25
  2                   73.37    205.89     55.89
  3                  198.10    190.87     40.87
  4                   88.05    203.50     48.50
  5                  146.74    196.02     36.02
  6                  242.12    201.20     36.20
  7                 -821.75    210.00      0.00  Reservoir
   
   
  Link Results at 15:45:00 hrs:
  ------------------------------------
                       Flow     State
  Link                 m3/h          
  ------------------------------------
  1                  136.05      open
  2                   62.68      open
  3                  612.33      open
  4                   83.78      open
  5                   51.64      open
  6                  440.51      open
  7                  198.38      open
  8                  821.75      open
   
   
  Node Results at 16:00:00 hrs:
  ----------------------------------------------
                     Demand      Head  Pressure
  Node                 m3/h         m         m
  ----------------------------------------------
  1                   91.60    192.28     32.28
  2                   91.60    203.80     53.80
  3                  247.31    181.14     31.14
  4                  109.92    200.20     45.20
  5                  183.19    188.92     28.92
  6                  302.27    196.73     31.73
  7                -1025.88    210.00      0.00  Reservoir
   
   
  Link Results at 16:00:00 hrs:
  ------------------------------------
                       Flow     State
  Link                 m3/h          
  ------------------------------------
  1                  169.85      open
  2                   78.25      open
  3                  764.44      open
  4                  104.59      open
  5                   64.47      open
  6                  549.93      open
  7                  247.66      open
  8                 1025.88      open
   
   
  Node Results at 16:15:00 hrs:
  ----------------------------------------------
                     Demand      Head  Pressure
  Node                 m3/h         m         m
  ----------------------------------------------
  1                   88.30    193.44     33.44
  2                   88.30    204.21     54.21
  3                  238.41    183.04     33.04
  4                  105.96    200.84     45.84
  5                  176.60    190.30     30.30
  6                  291.39    197.60     32.60
  7                 -988.97    210.00      0.00  Reservoir
   
   
  Link Results at 16:15:00 hrs:
  ------------------------------------
                       Flow     State
  Link                 m3/h          
  ------------------------------------
  1                  163.73      open
  2                   75.43      open
  3                  736.93      open
  4                  100.83      open
  5                   62.15      open
  6                  530.14      open
  7                  238.75      open
  8                  988.97      open
   
   
  Node Results at 16:30:00 hrs:
  ----------------------------------------------
                     Demand      Head  Pressure
  Node                 m3/h         m         m
  ----------------------------------------------
  1                   79.07    196.50     36.50
  2                   79.07    205.28     55.28
  3                  213.49    188.02     38.02
  4                   94.89    202.54     47.54
  5                  158.14    193.95     33.95
  6                  260.94    199.90     34.90
  7                 -885.60    210.00      0.00  Reservoir
   
   
  Link Results at 16:30:00 hrs:
  ------------------------------------
                       Flow     State
  Link                 m3/h          
  ------------------------------------
  1                  146.62      open
  2                   67.55      open
  3                  659.91      open
  4                   90.29      open
  5                   55.65      open
  6                  474.73      open
  7                  213.80      open
  8                  885.60      open
   
   
  Node Results at 16:45:00 hrs:
  ----------------------------------------------
                     Demand      Head  Pressure
  Node                 m3/h         m         m
  ----------------------------------------------
  1                  101.71    188.48     28.48
  2                  101.71    202.47     52.47
  3                  274.62    174.96     24.96
  4                  122.05    198.10     43.10
  5                  203.42    184.41     24.41
  6                  335.64    193.89     28.89
  7                -1139.16    210.00      0.00  Reservoir
   
   
  Link Results at 16:45:00 hrs:
  ------------------------------------
                       Flow     State
  Link                 m3/h          
  ------------------------------------
  1                  188.60      open
  2                   86.89      open
  3                  848.85      open
  4                  116.14      open
  5                   71.59      open
  6                  610.65      open
  7                  275.01      open
  8                 1139.16      open
   
   
  Node Results at 17:00:00 hrs:
  ----------------------------------------------
                     Demand      Head  Pressure
  Node                 m3/h         m         m
  ----------------------------------------------
  1                   90.93    192.52     32.52
  2                   90.93    203.88     53.88
  3                  245.50    181.53     31.53
  4                  109.11    200.33     45.33
  5                  181.85    189.20     29.20
  6                  300.06    196.91     31.91
  7                -1018.38    210.00      0.00  Reservoir
   
   
  Link Results at 17:00:00 hrs:
  ------------------------------------
                       Flow     State
  Link                 m3/h          
  ------------------------------------
  1                  168.60      open
  2                   77.68      open
  3                  758.85      open
  4                  103.83      open
  5                   64.00      open
  6                  545.91      open
  7                  245.85      open
  8                 1018.38      open
   
   
  Node Results at 17:15:00 hrs:
  ----------------------------------------------
                     Demand      Head  Pressure
  Node                 m3/h         m         m
  ----------------------------------------------
  1                  103.20    187.90     27.90
  2                  103.20    202.27     52.27
  3                  278.63    174.01     24.01
  4                  123.84    197.78     42.78
  5                  206.40    183.71     23.71
  6                  340.55    193.45     28.45
  7                -1155.81    210.00      0.00  Reservoir
   
   
  Link Results at 17:15:00 hrs:
  ------------------------------------
                       Flow     State
  Link                 m3/h          
  ------------------------------------
  1                  191.36      open
  2                   88.16      open
  3                  861.26      open
  4                  117.84      open
  5                   72.63      open
  6                  619.58      open
  7                  279.03      open
  8                 1155.81      open
   
   
  Node Results at 17:30:00 hrs:
  ----------------------------------------------
                     Demand      Head  Pressure
  Node                 m3/h         m         m
  ----------------------------------------------
  1                  112.87    183.91     23.91
  2                  112.87    200.87     50.87
  3                  304.74    167.52     17.52
  4                  135.44    195.58     40.58
  5                  225.73    178.97     18.97
  6                  372.46    190.47     25.47
  7                -1264.10    210.00      0.00  Reservoir
   
   
  Link Results at 17:30:00 hrs:
  ------------------------------------
                       Flow     State
  Link                 m3/h          
  ------------------------------------
  1                  209.29      open
  2                   96.42      open
  3                  941.95      open
  4                  128.88      open
  5                   79.44      open
  6                  677.63      open
  7                  305.17      open
  8                 1264.10      open
   
   
  Node Results at 17:45:00 hrs:
  ----------------------------------------------
                     Demand      Head  Pressure
  Node                 m3/h         m         m
  ----------------------------------------------
  1                  109.02    185.53     25.53
  2                  109.02    201.44     51.44
  3                  294.35    170.16     20.16
  4                  130.82    196.47     41.47
  5                  218.04    180.90     20.90
  6                  359.76    191.68     26.68
  7                -1221.01    210.00      0.00  Reservoir
   
   
  Link Results at 17:45:00 hrs:
  ------------------------------------
                       Flow     State
  Link                 m3/h          
  ------------------------------------
  1                  202.15      open
  2                   93.13      open
  3                  909.84      open
  4                  124.49      open
  5                   76.73      open
  6                  654.53      open
  7                  294.77      open
  8                 1221.01      open
   
   
  Node Results at 18:00:00 hrs:
  ----------------------------------------------
                     Demand      Head  Pressure
  Node                 m3/h         m         m
  ----------------------------------------------
  1                  122.53    179.62     19.62
  2                  122.53    199.37     49.37
  3                  330.84    160.53     10.53
  4                  147.04    193.20     38.20
  5                  245.07    173.87     13.87
  6                  404.36    187.26     22.26
  7                -1372.37    210.00      0.00  Reservoir
   
   
  Link Results at 18:00:00 hrs:
  ------------------------------------
                       Flow     State
  Link                 m3/h          
  ------------------------------------
  1                  227.21      open
  2                  104.68      open
  3                 1022.63      open
  4                  139.92      open
  5                   86.24      open
  6                  735.67      open
  7                  331.31      open
  8                 1372.37      open
   
   
  Node Results at 18:15:00 hrs:
  ----------------------------------------------
                     Demand      Head  Pressure
  Node                 m3/h         m         m
  ----------------------------------------------
  1                   98.47    189.73     29.73
  2                   98.47    202.91     52.91
  3                  265.88    177.00     27.00
  4                  118.17    198.80     43.80
  5                  196.95    185.90     25.90
  6                  324.96    194.83     29.83
  7                -1102.90    210.00      0.00  Reservoir
   
   
  Link Results at 18:15:00 hrs:
  ------------------------------------
                       Flow     State
  Link                 m3/h          
  ------------------------------------
[...]
   
  Link Results at 667:30:00 hrs:
  ------------------------------------
                       Flow     State
  Link                 m3/h          
  ------------------------------------
  1                  215.13      open
  2                   99.11      open
  3                  968.26      open
  4                  132.48      open
  5                   81.66      open
  6                  696.55      open
  7                  313.69      open
  8                 1299.41      open
   
   
  Node Results at 667:45:00 hrs:
  ----------------------------------------------
                     Demand      Head  Pressure
  Node                 m3/h         m         m
  ----------------------------------------------
  1                  146.96    171.11     11.11
  2                  146.96    195.96     45.96
  3                  345.37    150.08      0.08
  4                  176.35    187.80     32.80
  5                  293.92    162.73      2.73
  6                  484.97    179.81     14.81
  7                -1594.54    210.00      0.00  Reservoir
   
   
  Link Results at 667:45:00 hrs:
  ------------------------------------
                       Flow     State
  Link                 m3/h          
  ------------------------------------
  1                  257.26      open
  2                  110.30      open
  3                 1190.31      open
  4                  151.21      open
  5                   83.85      open
  6                  862.75      open
  7                  377.78      open
  8                 1594.54      open
   
   
  Node Results at 668:00:00 hrs:
  ----------------------------------------------
                     Demand      Head  Pressure
  Node                 m3/h         m         m
  ----------------------------------------------
  1                  126.66    177.70     17.70
  2                  126.66    198.70     48.70
  3                  341.98    157.40      7.40
  4                  151.99    192.14     37.14
  5                  253.32    171.58     11.58
  6                  417.98    185.82     20.82
  7                -1418.60    210.00      0.00  Reservoir
   
   
  Link Results at 668:00:00 hrs:
  ------------------------------------
                       Flow     State
  Link                 m3/h          
  ------------------------------------
  1                  234.86      open
  2                  108.20      open
  3                 1057.08      open
  4                  144.63      open
  5                   89.15      open
  6                  760.45      open
  7                  342.47      open
  8                 1418.60      open
   
   
  Node Results at 668:15:00 hrs:
  ----------------------------------------------
                     Demand      Head  Pressure
  Node                 m3/h         m         m
  ----------------------------------------------
  1                  134.53    173.88     13.88
  2                  134.53    197.36     47.36
  3                  363.23    151.19      1.19
  4                  161.44    190.03     35.03
  5                  269.06    167.04      7.04
  6                  443.95    182.96     17.96
  7                -1506.73    210.00      0.00  Reservoir
   
   
  Link Results at 668:15:00 hrs:
  ------------------------------------
                       Flow     State
  Link                 m3/h          
  ------------------------------------
  1                  249.45      open
  2                  114.93      open
  3                 1122.74      open
  4                  153.62      open
  5                   94.69      open
  6                  807.69      open
  7                  363.74      open
  8                 1506.73      open
   
   
  Node Results at 668:30:00 hrs:
  ----------------------------------------------
                     Demand      Head  Pressure
  Node                 m3/h         m         m
  ----------------------------------------------
  1                  144.64    171.55     11.55
  2                  144.64    196.21     46.21
  3                  349.99    150.08      0.08
  4                  173.57    188.19     33.19
  5                  289.29    163.46      3.46
  6                  477.33    180.37     15.37
  7                -1579.48    210.00      0.00  Reservoir
   
   
  Link Results at 668:30:00 hrs:
  ------------------------------------
                       Flow     State
  Link                 m3/h          
  ------------------------------------
  1                  256.17      open
  2                  111.53      open
  3                 1178.66      open
  4                  152.05      open
  5                   86.42      open
  6                  853.04      open
  7                  375.71      open
  8                 1579.48      open
   
   
  Node Results at 668:45:00 hrs:
  ----------------------------------------------
                     Demand      Head  Pressure
  Node                 m3/h         m         m
  ----------------------------------------------
  1                  120.91    180.36     20.36
  2                  120.91    199.63     49.63
  3                  326.47    161.74     11.74
  4                  145.10    193.61     38.61
  5                  241.83    174.75     14.75
  6                  399.02    187.81     22.81
  7                -1354.24    210.00      0.00  Reservoir
   
   
  Link Results at 668:45:00 hrs:
  ------------------------------------
                       Flow     State
  Link                 m3/h          
  ------------------------------------
  1                  224.21      open
  2                  103.29      open
  3                 1009.12      open
  4                  138.07      open
  5                   85.10      open
  6                  725.95      open
  7                  326.93      open
  8                 1354.24      open
   
   
  Node Results at 669:00:00 hrs:
  ----------------------------------------------
                     Demand      Head  Pressure
  Node                 m3/h         m         m
  ----------------------------------------------
  1                  146.15    171.26     11.26
  2                  146.15    196.05     46.05
  3                  346.99    150.08      0.08
  4                  175.38    187.93     32.93
  5                  292.30    162.99      2.99
  6                  482.30    180.01     15.01
  7                -1589.29    210.00      0.00  Reservoir
   
   
  Link Results at 669:00:00 hrs:
  ------------------------------------
                       Flow     State
  Link                 m3/h          
  ------------------------------------
  1                  256.88      open
  2                  110.73      open
  3                 1186.25      open
  4                  151.50      open
  5                   84.76      open
  6                  859.36      open
  7                  377.06      open
  8                 1589.29      open
   
   
  Node Results at 669:15:00 hrs:
  ----------------------------------------------
                     Demand      Head  Pressure
  Node                 m3/h         m         m
  ----------------------------------------------
  1                  114.26    183.31     23.31
  2                  114.26    200.66     50.66
  3                  308.51    166.54     16.54
  4                  137.12    195.24     40.24
  5                  228.53    178.25     18.25
  6                  377.07    190.02     25.02
  7                -1279.75    210.00      0.00  Reservoir
   
   
  Link Results at 669:15:00 hrs:
  ------------------------------------
                       Flow     State
  Link                 m3/h          
  ------------------------------------
  1                  211.88      open
  2                   97.61      open
  3                  953.61      open
  4                  130.48      open
  5                   80.42      open
  6                  686.02      open
  7                  308.95      open
  8                 1279.75      open
   
   
  Node Results at 669:30:00 hrs:
  ----------------------------------------------
                     Demand      Head  Pressure
  Node                 m3/h         m         m
  ----------------------------------------------
  1                  118.87    181.28     21.28
  2                  118.87    199.95     49.95
  3                  320.96    163.23     13.23
  4                  142.65    194.12     39.12
  5                  237.75    175.84     15.84
  6                  392.28    188.50     23.50
  7                -1331.38    210.00      0.00  Reservoir
   
   
  Link Results at 669:30:00 hrs:
  ------------------------------------
                       Flow     State
  Link                 m3/h          
  ------------------------------------
  1                  220.42      open
  2                  101.55      open
  3                  992.09      open
  4                  135.74      open
  5                   83.67      open
  6                  713.70      open
  7                  321.41      open
  8                 1331.38      open
   
   
  Node Results at 669:45:00 hrs:
  ----------------------------------------------
                     Demand      Head  Pressure
  Node                 m3/h         m         m
  ----------------------------------------------
  1                  122.62    179.58     19.58
  2                  122.62    199.36     49.36
  3                  331.07    160.47     10.47
  4                  147.14    193.18     38.18
  5                  245.24    173.82     13.82
  6                  404.65    187.23     22.23
  7                -1373.35    210.00      0.00  Reservoir
   
   
  Link Results at 669:45:00 hrs:
  ------------------------------------
                       Flow     State
  Link                 m3/h          
  ------------------------------------
  1                  227.37      open
  2                  104.75      open
  3                 1023.35      open
  4                  140.02      open
  5                   86.30      open
  6                  736.19      open
  7                  331.54      open
  8                 1373.35      open
   
   
  Node Results at 670:00:00 hrs:
  ----------------------------------------------
                     Demand      Head  Pressure
  Node                 m3/h         m         m
  ----------------------------------------------
  1                  138.61    172.69     12.69
  2                  138.61    196.84     46.84
  3                  361.71    150.09      0.09
  4                  166.33    189.21     34.21
  5                  277.21    165.38      5.38
  6                  457.40    181.81     16.81
  7                -1539.86    210.00      0.00  Reservoir
   
   
  Link Results at 670:00:00 hrs:
  ------------------------------------
                       Flow     State
  Link                 m3/h          
  ------------------------------------
  1                  253.28      open
  2                  114.67      open
  3                 1147.97      open
  4                  154.20      open
  5                   92.84      open
  6                  827.45      open
  7                  370.05      open
  8                 1539.86      open
   
   
  Node Results at 670:15:00 hrs:
  ----------------------------------------------
                     Demand      Head  Pressure
  Node                 m3/h         m         m
  ----------------------------------------------
  1                  124.54    178.70     18.70
  2                  124.54    199.05     49.05
  3                  336.25    159.03      9.03
  4                  149.44    192.69     37.69
  5                  249.07    172.77     12.77
  6                  410.97    186.57     21.57
  7                -1394.80    210.00      0.00  Reservoir
   
   
  Link Results at 670:15:00 hrs:
  ------------------------------------
                       Flow     State
  Link                 m3/h          
  ------------------------------------
  1                  230.92      open
  2                  106.39      open
  3                 1039.34      open
  4                  142.21      open
  5                   87.65      open
  6                  747.69      open
  7                  336.72      open
  8                 1394.80      open
   
   
  Node Results at 670:30:00 hrs:
  ----------------------------------------------
                     Demand      Head  Pressure
  Node                 m3/h         m         m
  ----------------------------------------------
  1                  107.69    186.08     26.08
  2                  107.69    201.63     51.63
  3                  290.76    171.05     21.05
  4                  129.23    196.78     41.78
  5                  215.38    181.55     21.55
  6                  355.37    192.10     27.10
  7                -1206.12    210.00      0.00  Reservoir
   
   
  Link Results at 670:30:00 hrs:
  ------------------------------------
                       Flow     State
  Link                 m3/h          
  ------------------------------------
  1                  199.69      open
  2                   92.00      open
  3                  898.75      open
  4                  122.97      open
  5                   75.79      open
  6                  646.55      open
  7                  291.17      open
  8                 1206.12      open
   
   
  Node Results at 670:45:00 hrs:
  ----------------------------------------------
                     Demand      Head  Pressure
  Node                 m3/h         m         m
  ----------------------------------------------
  1                  121.37    180.15     20.15
  2                  121.37    199.56     49.56
  3                  327.70    161.40     11.40
  4                  145.65    193.50     38.50
  5                  242.74    174.50     14.50
  6                  400.52    187.66     22.66
  7                -1359.36    210.00      0.00  Reservoir
   
   
  Link Results at 670:45:00 hrs:
  ------------------------------------
                       Flow     State
  Link                 m3/h          
  ------------------------------------
  1                  225.06      open
  2                  103.68      open
  3                 1012.93      open
  4                  138.59      open
  5                   85.42      open
  6                  728.69      open
  7                  328.17      open
  8                 1359.36      open
   
   
  Node Results at 671:00:00 hrs:
  ----------------------------------------------
                     Demand      Head  Pressure
  Node                 m3/h         m         m
  ----------------------------------------------
  1                  110.59    184.88     24.88
  2                  110.59    201.21     51.21
  3                  298.59    169.09     19.09
  4                  132.71    196.11     41.11
  5                  221.18    180.12     20.12
  6                  364.94    191.19     26.19
  7                -1238.60    210.00      0.00  Reservoir
   
   
  Link Results at 671:00:00 hrs:
  ------------------------------------
                       Flow     State
  Link                 m3/h          
  ------------------------------------
  1                  205.06      open
  2                   94.47      open
  3                  922.95      open
  4                  126.28      open
  5                   77.84      open
  6                  663.96      open
  7                  299.01      open
  8                 1238.60      open
   
   
  Node Results at 671:15:00 hrs:
  ----------------------------------------------
                     Demand      Head  Pressure
  Node                 m3/h         m         m
  ----------------------------------------------
  1                  123.08    179.37     19.37
  2                  123.08    199.28     49.28
  3                  332.32    160.12     10.12
  4                  147.70    193.07     38.07
  5                  246.16    173.57     13.57
  6                  406.16    187.07     22.07
  7                -1378.50    210.00      0.00  Reservoir
   
   
  Link Results at 671:15:00 hrs:
  ------------------------------------
                       Flow     State
  Link                 m3/h          
  ------------------------------------
  1                  228.22      open
  2                  105.14      open
  3                 1027.19      open
  4                  140.54      open
  5                   86.63      open
  6                  738.95      open
  7                  332.79      open
  8                 1378.50      open
   
   
  Node Results at 671:30:00 hrs:
  ----------------------------------------------
                     Demand      Head  Pressure
  Node                 m3/h         m         m
  ----------------------------------------------
  1                  104.30    187.46     27.46
  2                  104.30    202.11     52.11
  3                  281.61    173.29     23.29
  4                  125.16    197.54     42.54
  5                  208.60    183.19     23.19
  6                  344.19    193.13     28.13
  7                -1168.17    210.00      0.00  Reservoir
   
   
  Link Results at 671:30:00 hrs:
  ------------------------------------
                       Flow     State
  Link                 m3/h          
  ------------------------------------
  1                  193.40      open
  2                   89.10      open
  3                  870.47      open
  4                  119.10      open
  5                   73.41      open
  6                  626.21      open
  7                  282.01      open
  8                 1168.17      open
   
   
  Node Results at 671:45:00 hrs:
  ----------------------------------------------
                     Demand      Head  Pressure
  Node                 m3/h         m         m
  ----------------------------------------------
  1                  100.53    188.95     28.95
  2                  100.53    202.63     52.63
  3                  271.42    175.72     25.72
  4                  120.63    198.36     43.36
  5                  201.05    184.96     24.96
  6                  331.74    194.24     29.24
  7                -1125.89    210.00      0.00  Reservoir
   
   
  Link Results at 671:45:00 hrs:
  ------------------------------------
                       Flow     State
  Link                 m3/h          
  ------------------------------------
  1                  186.40      open
  2                   85.88      open
  3                  838.96      open
  4                  114.79      open
  5                   70.75      open
  6                  603.54      open
  7                  271.81      open
  8                 1125.89      open
   
   
  Node Results at 672:00:00 hrs:
  ----------------------------------------------
                     Demand      Head  Pressure
  Node                 m3/h         m         m
  ----------------------------------------------
  1                  105.88    186.82     26.82
  2                  105.88    201.89     51.89
  3                  285.87    172.26     22.26
  4                  127.05    197.19     42.19
  5                  211.75    182.43     22.43
  6                  349.39    192.65     27.65
  7                -1185.82    210.00      0.00  Reservoir
   
   
  Link Results at 672:00:00 hrs:
  ------------------------------------
                       Flow     State
  Link                 m3/h          
  ------------------------------------
  1                  196.32      open
  2                   90.45      open
  3                  883.62      open
  4                  120.90      open
  5                   74.52      open
  6                  635.66      open
  7                  286.27      open
  8                 1185.82      open
   
  Analysis ended Tue Mar  7 12:01:39 2023
