  Page 1                                    Tue Mar  7 12:01:35 2023

  ******************************************************************
  *                           E P A N E T                          *
  *                   Hydraulic and Water Quality                  *
  *                   Analysis for Pipe Networks                   *
  *                         Version 2.2                            *
  ******************************************************************
  
  Analysis begun Tue Mar  7 12:01:35 2023

   
  Node Results at 0:00:00 hrs:
  ----------------------------------------------
                     Demand      Head  Pressure
  Node                 m3/h         m         m
  ----------------------------------------------
  1                   99.53    189.33     29.33
  2                   99.53    202.77     52.77
  3                  268.72    176.35     26.35
  4                  119.43    198.57     43.57
  5                  199.05    185.42     25.42
  6                  328.44    194.53     29.53
  7                -1114.69    210.00      0.00  Reservoir
   
   
  Link Results at 0:00:00 hrs:
  ------------------------------------
                       Flow     State
  Link                 m3/h          
  ------------------------------------
  1                  184.55      open
  2                   85.02      open
  3                  830.62      open
  4                  113.65      open
  5                   70.05      open
  6                  597.54      open
  7                  269.10      open
  8                 1114.69      open
   
   
  Node Results at 0:15:00 hrs:
  ----------------------------------------------
                     Demand      Head  Pressure
  Node                 m3/h         m         m
  ----------------------------------------------
  1                   81.30    195.79     35.79
  2                   81.30    205.03     55.03
  3                  219.51    186.86     36.86
  4                   97.56    202.14     47.14
  5                  162.60    193.10     33.10
  6                  268.29    199.36     34.36
  7                 -910.56    210.00      0.00  Reservoir
   
   
  Link Results at 0:15:00 hrs:
  ------------------------------------
                       Flow     State
  Link                 m3/h          
  ------------------------------------
  1                  150.75      open
  2                   69.45      open
  3                  678.51      open
  4                   92.84      open
  5                   57.22      open
  6                  488.11      open
  7                  219.82      open
  8                  910.56      open
   
   
  Node Results at 0:30:00 hrs:
  ----------------------------------------------
                     Demand      Head  Pressure
  Node                 m3/h         m         m
  ----------------------------------------------
  1                   75.27    197.68     37.68
  2                   75.27    205.69     55.69
  3                  203.22    189.94     39.94
  4                   90.32    203.19     48.19
  5                  150.54    195.35     35.35
  6                  248.38    200.78     35.78
  7                 -843.00    210.00      0.00  Reservoir
   
   
  Link Results at 0:30:00 hrs:
  ------------------------------------
                       Flow     State
  Link                 m3/h          
  ------------------------------------
  1                  139.57      open
  2                   64.30      open
  3                  628.17      open
  4                   85.95      open
  5                   52.98      open
  6                  451.90      open
  7                  203.51      open
  8                  843.00      open
   
   
  Node Results at 0:45:00 hrs:
  ----------------------------------------------
                     Demand      Head  Pressure
  Node                 m3/h         m         m
  ----------------------------------------------
  1                   73.45    198.23     38.23
  2                   73.45    205.88     55.88
  3                  198.32    190.83     40.83
  4                   88.14    203.49     48.49
  5                  146.90    195.99     35.99
  6                  242.39    201.19     36.19
  7                 -822.65    210.00      0.00  Reservoir
   
   
  Link Results at 0:45:00 hrs:
  ------------------------------------
                       Flow     State
  Link                 m3/h          
  ------------------------------------
  1                  136.20      open
  2                   62.75      open
  3                  613.00      open
  4                   83.87      open
  5                   51.70      open
  6                  440.99      open
  7                  198.60      open
  8                  822.65      open
   
   
  Node Results at 1:00:00 hrs:
  ----------------------------------------------
                     Demand      Head  Pressure
  Node                 m3/h         m         m
  ----------------------------------------------
  1                   66.72    200.14     40.14
  2                   66.72    206.55     56.55
  3                  180.15    193.95     43.95
  4                   80.07    204.55     49.55
  5                  133.45    198.28     38.28
  6                  220.19    202.62     37.62
  7                 -747.30    210.00      0.00  Reservoir
   
   
  Link Results at 1:00:00 hrs:
  ------------------------------------
                       Flow     State
  Link                 m3/h          
  ------------------------------------
  1                  123.72      open
  2                   57.00      open
  3                  556.85      open
  4                   76.19      open
  5                   46.96      open
  6                  400.59      open
  7                  180.41      open
  8                  747.30      open
   
   
  Node Results at 1:15:00 hrs:
  ----------------------------------------------
                     Demand      Head  Pressure
  Node                 m3/h         m         m
  ----------------------------------------------
  1                   53.19    203.52     43.52
  2                   53.19    207.73     57.73
  3                  143.62    199.45     49.45
  4                   63.83    206.42     51.42
  5                  106.38    202.30     42.30
  6                  175.53    205.15     40.15
  7                 -595.74    210.00      0.00  Reservoir
   
   
  Link Results at 1:15:00 hrs:
  ------------------------------------
                       Flow     State
  Link                 m3/h          
  ------------------------------------
  1                   98.63      open
  2                   45.44      open
  3                  443.92      open
  4                   60.74      open
  5                   37.44      open
  6                  319.35      open
  7                  143.82      open
  8                  595.74      open
   
   
  Node Results at 1:30:00 hrs:
  ----------------------------------------------
                     Demand      Head  Pressure
  Node                 m3/h         m         m
  ----------------------------------------------
  1                   56.98    202.64     42.64
  2                   56.98    207.43     57.43
  3                  153.85    198.02     48.02
  4                   68.38    205.93     50.93
  5                  113.96    201.25     41.25
  6                  188.03    204.49     39.49
  7                 -638.17    210.00      0.00  Reservoir
   
   
  Link Results at 1:30:00 hrs:
  ------------------------------------
                       Flow     State
  Link                 m3/h          
  ------------------------------------
  1                  105.66      open
  2                   48.68      open
  3                  475.54      open
  4                   65.06      open
  5                   40.10      open
  6                  342.10      open
  7                  154.06      open
  8                  638.17      open
   
   
  Node Results at 1:45:00 hrs:
  ----------------------------------------------
                     Demand      Head  Pressure
  Node                 m3/h         m         m
  ----------------------------------------------
  1                   51.39    203.92     43.92
  2                   51.39    207.87     57.87
  3                  138.74    200.11     50.11
  4                   61.66    206.64     51.64
  5                  102.77    202.77     42.77
  6                  169.57    205.45     40.45
  7                 -575.51    210.00      0.00  Reservoir
   
   
  Link Results at 1:45:00 hrs:
  ------------------------------------
                       Flow     State
  Link                 m3/h          
  ------------------------------------
  1                   95.28      open
  2                   43.90      open
  3                  428.85      open
  4                   58.68      open
  5                   36.17      open
  6                  308.51      open
  7                  138.94      open
  8                  575.51      open
   
   
  Node Results at 2:00:00 hrs:
  ----------------------------------------------
                     Demand      Head  Pressure
  Node                 m3/h         m         m
  ----------------------------------------------
  1                   49.69    204.29     44.29
  2                   49.69    208.00     58.00
  3                  134.16    200.70     50.70
  4                   59.63    206.84     51.84
  5                   99.38    203.21     43.21
  6                  163.98    205.73     40.73
  7                 -556.53    210.00      0.00  Reservoir
   
   
  Link Results at 2:00:00 hrs:
  ------------------------------------
                       Flow     State
  Link                 m3/h          
  ------------------------------------
  1                   92.14      open
  2                   42.45      open
  3                  414.70      open
  4                   56.74      open
  5                   34.97      open
  6                  298.33      open
  7                  134.35      open
  8                  556.53      open
   
   
  Node Results at 2:15:00 hrs:
  ----------------------------------------------
                     Demand      Head  Pressure
  Node                 m3/h         m         m
  ----------------------------------------------
  1                   49.21    204.39     44.39
  2                   49.21    208.04     58.04
  3                  132.87    200.87     50.87
  4                   59.05    206.90     51.90
  5                   98.42    203.33     43.33
  6                  162.39    205.80     40.80
  7                 -551.15    210.00      0.00  Reservoir
   
   
  Link Results at 2:15:00 hrs:
  ------------------------------------
                       Flow     State
  Link                 m3/h          
  ------------------------------------
  1                   91.25      open
  2                   42.04      open
  3                  410.69      open
  4                   56.19      open
  5                   34.64      open
  6                  295.45      open
  7                  133.05      open
  8                  551.15      open
   
   
  Node Results at 2:30:00 hrs:
  ----------------------------------------------
                     Demand      Head  Pressure
  Node                 m3/h         m         m
  ----------------------------------------------
  1                   46.18    205.02     45.02
  2                   46.18    208.26     58.26
  3                  124.67    201.88     51.88
  4                   55.41    207.24     52.24
  5                   92.35    204.07     44.07
  6                  152.38    206.27     41.27
  7                 -517.16    210.00      0.00  Reservoir
   
   
  Link Results at 2:30:00 hrs:
  ------------------------------------
                       Flow     State
  Link                 m3/h          
  ------------------------------------
  1                   85.62      open
  2                   39.45      open
  3                  385.37      open
  4                   52.73      open
  5                   32.50      open
  6                  277.23      open
  7                  124.85      open
  8                  517.16      open
   
   
  Node Results at 2:45:00 hrs:
  ----------------------------------------------
                     Demand      Head  Pressure
  Node                 m3/h         m         m
  ----------------------------------------------
  1                   46.91    204.87     44.87
  2                   46.91    208.20     58.20
  3                  126.65    201.64     51.64
  4                   56.29    207.16     52.16
  5                   93.81    203.90     43.90
  6                  154.79    206.16     41.16
  7                 -525.36    210.00      0.00  Reservoir
   
   
  Link Results at 2:45:00 hrs:
  ------------------------------------
                       Flow     State
  Link                 m3/h          
  ------------------------------------
  1                   86.98      open
  2                   40.07      open
  3                  391.48      open
  4                   53.56      open
  5                   33.01      open
  6                  281.62      open
  7                  126.83      open
  8                  525.36      open
   
   
  Node Results at 3:00:00 hrs:
  ----------------------------------------------
                     Demand      Head  Pressure
  Node                 m3/h         m         m
  ----------------------------------------------
  1                   41.83    205.85     45.85
  2                   41.83    208.55     58.55
  3                  112.93    203.24     53.24
  4                   50.19    207.71     52.71
  5                   83.65    205.06     45.06
  6                  138.03    206.89     41.89
  7                 -468.46    210.00      0.00  Reservoir
   
   
  Link Results at 3:00:00 hrs:
  ------------------------------------
                       Flow     State
  Link                 m3/h          
  ------------------------------------
  1                   77.56      open
  2                   35.73      open
  3                  349.07      open
  4                   47.76      open
  5                   29.44      open
  6                  251.12      open
  7                  113.09      open
  8                  468.46      open
   
   
  Node Results at 3:15:00 hrs:
  ----------------------------------------------
                     Demand      Head  Pressure
  Node                 m3/h         m         m
  ----------------------------------------------
  1                   36.66    206.75     46.75
  2                   36.66    208.86     58.86
  3                   98.97    204.71     54.71
  4                   43.99    208.20     53.20
  5                   73.31    206.13     46.13
  6                  120.96    207.57     42.57
  7                 -410.55    210.00      0.00  Reservoir
   
   
  Link Results at 3:15:00 hrs:
  ------------------------------------
                       Flow     State
  Link                 m3/h          
  ------------------------------------
  1                   67.97      open
  2                   31.31      open
  3                  305.92      open
  4                   41.86      open
  5                   25.80      open
  6                  220.08      open
  7                   99.11      open
  8                  410.55      open
   
   
  Node Results at 3:30:00 hrs:
  ----------------------------------------------
                     Demand      Head  Pressure
  Node                 m3/h         m         m
  ----------------------------------------------
  1                   33.85    207.19     47.19
  2                   33.85    209.02     59.02
  3                   91.40    205.43     55.43
  4                   40.62    208.45     53.45
  5                   67.71    206.66     46.66
  6                  111.72    207.90     42.90
  7                 -379.16    210.00      0.00  Reservoir
   
   
  Link Results at 3:30:00 hrs:
  ------------------------------------
                       Flow     State
  Link                 m3/h          
  ------------------------------------
  1                   62.77      open
  2                   28.92      open
  3                  282.53      open
  4                   38.66      open
  5                   23.83      open
  6                  203.25      open
  7                   91.53      open
  8                  379.16      open
   
   
  Node Results at 3:45:00 hrs:
  ----------------------------------------------
                     Demand      Head  Pressure
  Node                 m3/h         m         m
  ----------------------------------------------
  1                   31.18    207.59     47.59
  2                   31.18    209.16     59.16
  3                   84.20    206.08     56.08
  4                   37.42    208.67     53.67
  5                   62.37    207.13     47.13
  6                  102.91    208.20     43.20
  7                 -349.27    210.00      0.00  Reservoir
   
   
  Link Results at 3:45:00 hrs:
  ------------------------------------
                       Flow     State
  Link                 m3/h          
  ------------------------------------
  1                   57.83      open
  2                   26.64      open
  3                  260.26      open
  4                   35.61      open
  5                   21.95      open
  6                  187.23      open
  7                   84.32      open
  8                  349.27      open
   
   
  Node Results at 4:00:00 hrs:
  ----------------------------------------------
                     Demand      Head  Pressure
  Node                 m3/h         m         m
  ----------------------------------------------
  1                   32.69    207.37     47.37
  2                   32.69    209.08     59.08
  3                   88.26    205.72     55.72
  4                   39.23    208.55     53.55
  5                   65.38    206.87     46.87
  6                  107.87    208.03     43.03
  7                 -366.12    210.00      0.00  Reservoir
   
   
  Link Results at 4:00:00 hrs:
  ------------------------------------
                       Flow     State
  Link                 m3/h          
  ------------------------------------
  1                   60.62      open
  2                   27.93      open
  3                  272.82      open
  4                   37.33      open
  5                   23.01      open
  6                  196.26      open
  7                   88.39      open
  8                  366.12      open
   
   
  Node Results at 4:15:00 hrs:
  ----------------------------------------------
                     Demand      Head  Pressure
  Node                 m3/h         m         m
  ----------------------------------------------
  1                   31.34    207.57     47.57
  2                   31.34    209.15     59.15
  3                   84.61    206.04     56.04
  4                   37.60    208.66     53.66
  5                   62.67    207.11     47.11
  6                  103.41    208.18     43.18
  7                 -350.96    210.00      0.00  Reservoir
   
   
  Link Results at 4:15:00 hrs:
  ------------------------------------
                       Flow     State
  Link                 m3/h          
  ------------------------------------
  1                   58.10      open
  2                   26.77      open
  3                  261.52      open
  4                   35.78      open
  5                   22.05      open
  6                  188.13      open
  7                   84.73      open
  8                  350.96      open
   
   
  Node Results at 4:30:00 hrs:
  ----------------------------------------------
                     Demand      Head  Pressure
  Node                 m3/h         m         m
  ----------------------------------------------
  1                   35.47    206.94     46.94
  2                   35.47    208.93     58.93
  3                   95.78    205.02     55.02
  4                   42.57    208.31     53.31
  5                   70.95    206.36     46.36
  6                  117.07    207.71     42.71
  7                 -397.31    210.00      0.00  Reservoir
   
   
  Link Results at 4:30:00 hrs:
  ------------------------------------
                       Flow     State
  Link                 m3/h          
  ------------------------------------
  1                   65.78      open
  2                   30.30      open
  3                  296.06      open
  4                   40.51      open
  5                   24.97      open
  6                  212.98      open
  7                   95.92      open
  8                  397.31      open
   
   
  Node Results at 4:45:00 hrs:
  ----------------------------------------------
                     Demand      Head  Pressure
  Node                 m3/h         m         m
  ----------------------------------------------
  1                   36.06    206.85     46.85
  2                   36.06    208.90     58.90
  3                   97.35    204.87     54.87
  4                   43.27    208.26     53.26
  5                   72.11    206.25     46.25
  6                  118.99    207.64     42.64
  7                 -403.84    210.00      0.00  Reservoir
   
   
  Link Results at 4:45:00 hrs:
  ------------------------------------
                       Flow     State
  Link                 m3/h          
  ------------------------------------
  1                   66.86      open
  2                   30.80      open
  3                  300.92      open
  4                   41.17      open
  5                   25.38      open
  6                  216.48      open
  7                   97.49      open
  8                  403.84      open
   
   
  Node Results at 5:00:00 hrs:
  ----------------------------------------------
                     Demand      Head  Pressure
  Node                 m3/h         m         m
  ----------------------------------------------
  1                   33.87    207.19     47.19
  2                   33.87    209.02     59.02
  3                   91.46    205.43     55.43
  4                   40.65    208.45     53.45
  5                   67.75    206.66     46.66
  6                  111.78    207.90     42.90
  7                 -379.38    210.00      0.00  Reservoir
   
   
  Link Results at 5:00:00 hrs:
  ------------------------------------
                       Flow     State
  Link                 m3/h          
  ------------------------------------
  1                   62.81      open
  2                   28.94      open
  3                  282.69      open
  4                   38.68      open
  5                   23.84      open
  6                  203.37      open
  7                   91.59      open
  8                  379.38      open
   
   
  Node Results at 5:15:00 hrs:
  ----------------------------------------------
                     Demand      Head  Pressure
  Node                 m3/h         m         m
  ----------------------------------------------
  1                   41.72    205.87     45.87
  2                   41.72    208.55     58.55
  3                  112.64    203.27     53.27
  4                   50.06    207.72     52.72
  5                   83.44    205.09     45.09
  6                  137.67    206.91     41.91
  7                 -467.25    210.00      0.00  Reservoir
   
   
  Link Results at 5:15:00 hrs:
  ------------------------------------
                       Flow     State
  Link                 m3/h          
  ------------------------------------
  1                   77.36      open
  2                   35.64      open
  3                  348.17      open
  4                   47.64      open
  5                   29.36      open
  6                  250.47      open
  7                  112.80      open
  8                  467.25      open
   
   
  Node Results at 5:30:00 hrs:
  ----------------------------------------------
                     Demand      Head  Pressure
  Node                 m3/h         m         m
  ----------------------------------------------
  1                   42.33    205.76     45.76
  2                   42.33    208.52     58.52
  3                  114.30    203.09     53.09
  4                   50.80    207.65     52.65
  5                   84.66    204.95     44.95
  6                  139.69    206.82     41.82
  7                 -474.11    210.00      0.00  Reservoir
   
   
  Link Results at 5:30:00 hrs:
  ------------------------------------
                       Flow     State
  Link                 m3/h          
  ------------------------------------
  1                   78.49      open
  2                   36.16      open
  3                  353.29      open
  4                   48.34      open
  5                   29.79      open
  6                  254.15      open
  7                  114.46      open
  8                  474.11      open
   
   
  Node Results at 5:45:00 hrs:
  ----------------------------------------------
                     Demand      Head  Pressure
  Node                 m3/h         m         m
  ----------------------------------------------
  1                   40.82    206.03     46.03
  2                   40.82    208.61     58.61
  3                  110.21    203.54     53.54
  4                   48.98    207.81     52.81
  5                   81.64    205.28     45.28
  6                  134.70    207.03     42.03
  7                 -457.18    210.00      0.00  Reservoir
   
   
  Link Results at 5:45:00 hrs:
  ------------------------------------
                       Flow     State
  Link                 m3/h          
  ------------------------------------
  1                   75.69      open
  2                   34.87      open
  3                  340.67      open
  4                   46.61      open
  5                   28.73      open
  6                  245.07      open
  7                  110.37      open
  8                  457.18      open
   
   
  Node Results at 6:00:00 hrs:
  ----------------------------------------------
                     Demand      Head  Pressure
  Node                 m3/h         m         m
  ----------------------------------------------
  1                   56.81    202.68     42.68
  2                   56.81    207.44     57.44
  3                  153.39    198.09     48.09
  4                   68.17    205.95     50.95
  5                  113.62    201.30     41.30
  6                  187.47    204.52     39.52
  7                 -636.27    210.00      0.00  Reservoir
   
   
  Link Results at 6:00:00 hrs:
  ------------------------------------
                       Flow     State
  Link                 m3/h          
  ------------------------------------
  1                  105.34      open
  2                   48.53      open
  3                  474.12      open
  4                   64.87      open
  5                   39.98      open
  6                  341.07      open
  7                  153.60      open
  8                  636.27      open
   
   
  Node Results at 6:15:00 hrs:
  ----------------------------------------------
                     Demand      Head  Pressure
  Node                 m3/h         m         m
  ----------------------------------------------
  1                   58.08    202.38     42.38
  2                   58.08    207.33     57.33
  3                  156.82    197.59     47.59
  4                   69.70    205.79     50.79
  5                  116.16    200.93     40.93
  6                  191.67    204.29     39.29
  7                 -650.50    210.00      0.00  Reservoir
   
   
  Link Results at 6:15:00 hrs:
  ------------------------------------
                       Flow     State
  Link                 m3/h          
  ------------------------------------
  1                  107.70      open
  2                   49.62      open
  3                  484.73      open
  4                   66.32      open
  5                   40.88      open
  6                  348.71      open
  7                  157.04      open
  8                  650.50      open
   
   
  Node Results at 6:30:00 hrs:
  ----------------------------------------------
                     Demand      Head  Pressure
  Node                 m3/h         m         m
  ----------------------------------------------
  1                   81.93    195.59     35.59
  2                   81.93    204.96     54.96
  3                  221.20    186.53     36.53
  4                   98.31    202.03     47.03
  5                  163.85    192.86     32.86
  6                  270.36    199.21     34.21
  7                 -917.59    210.00      0.00  Reservoir
   
   
  Link Results at 6:30:00 hrs:
  ------------------------------------
                       Flow     State
  Link                 m3/h          
  ------------------------------------
  1                  151.92      open
  2                   69.99      open
  3                  683.74      open
  4                   93.55      open
  5                   57.66      open
  6                  491.88      open
  7                  221.52      open
  8                  917.59      open
   
   
  Node Results at 6:45:00 hrs:
  ----------------------------------------------
                     Demand      Head  Pressure
  Node                 m3/h         m         m
  ----------------------------------------------
  1                  100.28    189.04     29.04
  2                  100.28    202.67     52.67
  3                  270.76    175.87     25.87
  4                  120.34    198.41     43.41
  5                  200.56    185.07     25.07
  6                  330.93    194.31     29.31
  7                -1123.16    210.00      0.00  Reservoir
   
   
  Link Results at 6:45:00 hrs:
  ------------------------------------
                       Flow     State
  Link                 m3/h          
  ------------------------------------
  1                  185.95      open
  2                   85.67      open
  3                  836.93      open
  4                  114.51      open
  5                   70.58      open
  6                  602.08      open
  7                  271.15      open
  8                 1123.16      open
   
   
  Node Results at 7:00:00 hrs:
  ----------------------------------------------
                     Demand      Head  Pressure
  Node                 m3/h         m         m
  ----------------------------------------------
  1                  131.04    175.60     15.60
  2                  131.04    197.96     47.96
  3                  353.80    153.99      3.99
  4                  157.24    190.98     35.98
  5                  262.07    169.09      9.09
  6                  432.42    184.25     19.25
  7                -1467.60    210.00      0.00  Reservoir
   
   
  Link Results at 7:00:00 hrs:
  ------------------------------------
                       Flow     State
  Link                 m3/h          
  ------------------------------------
  1                  242.98      open
  2                  111.94      open
  3                 1093.59      open
  4                  149.63      open
  5                   92.23      open
  6                  786.72      open
  7                  354.30      open
  8                 1467.60      open
   
   
  Node Results at 7:15:00 hrs:
  ----------------------------------------------
                     Demand      Head  Pressure
  Node                 m3/h         m         m
  ----------------------------------------------
  1                  147.08    171.08     11.08
  2                  147.08    195.95     45.95
  3                  345.12    150.08      0.08
  4                  176.50    187.78     32.78
  5                  294.16    162.70      2.70
  6                  485.37    179.78     14.78
  7                -1595.32    210.00      0.00  Reservoir
   
   
  Link Results at 7:15:00 hrs:
  ------------------------------------
                       Flow     State
  Link                 m3/h          
  ------------------------------------
  1                  257.32      open
  2                  110.24      open
  3                 1190.92      open
  4                  151.17      open
  5                   83.72      open
  6                  863.25      open
  7                  377.88      open
  8                 1595.32      open
   
   
  Node Results at 7:30:00 hrs:
  ----------------------------------------------
                     Demand      Head  Pressure
  Node                 m3/h         m         m
  ----------------------------------------------
  1                  148.06    170.90     10.90
  2                  148.06    195.85     45.85
  3                  343.15    150.07      0.07
  4                  177.67    187.61     32.61
  5                  296.11    162.39      2.39
  6                  488.59    179.55     14.55
  7                -1601.64    210.00      0.00  Reservoir
   
   
  Link Results at 7:30:00 hrs:
  ------------------------------------
                       Flow     State
  Link                 m3/h          
  ------------------------------------
  1                  257.78      open
  2                  109.72      open
  3                 1195.80      open
  4                  150.81      open
  5                   82.62      open
  6                  867.32      open
  7                  378.73      open
  8                 1601.64      open
   
   
  Node Results at 7:45:00 hrs:
  ----------------------------------------------
                     Demand      Head  Pressure
  Node                 m3/h         m         m
  ----------------------------------------------
  1                  158.39    169.02      9.02
  2                  158.39    194.86     44.86
  3                  325.69    150.06      0.06
  4                  190.07    186.04     31.04
  5                  306.05    160.09      0.09
  6                  522.68    177.36     12.36
  7                -1661.28    210.00      0.00  Reservoir
   
   
  Link Results at 7:45:00 hrs:
  ------------------------------------
                       Flow     State
  Link                 m3/h          
  ------------------------------------
  1                  262.69      open
  2                  104.30      open
  3                 1240.19      open
  4                  147.42      open
  5                   73.97      open
  6                  902.71      open
  7                  380.03      open
  8                 1661.28      open
   
   
  Node Results at 8:00:00 hrs:
  ----------------------------------------------
                     Demand      Head  Pressure
  Node                 m3/h         m         m
  ----------------------------------------------
  1                  151.48    170.25     10.25
  2                  151.48    195.49     45.49
  3                  336.12    150.07      0.07
  4                  181.77    187.03     32.03
  5                  302.95    161.32      1.32
  6                  499.88    178.72     13.72
  7                -1623.68    210.00      0.00  Reservoir
   
   
  Link Results at 8:00:00 hrs:
  ------------------------------------
                       Flow     State
  Link                 m3/h          
  ------------------------------------
  1                  259.36      open
  2                  107.88      open
  3                 1212.84      open
  4                  149.56      open
  5                   78.68      open
  6                  881.51      open
  7                  381.63      open
  8                 1623.68      open
   
   
  Node Results at 8:15:00 hrs:
  ----------------------------------------------
                     Demand      Head  Pressure
  Node                 m3/h         m         m
  ----------------------------------------------
  1                  143.12    171.84     11.84
  2                  143.12    196.37     46.37
  3                  353.00    150.08      0.08
  4                  171.75    188.45     33.45
  5                  286.24    163.95      3.95
  6                  472.30    180.73     15.73
  7                -1569.53    210.00      0.00  Reservoir
   
   
  Link Results at 8:15:00 hrs:
  ------------------------------------
                       Flow     State
  Link                 m3/h          
  ------------------------------------
  1                  255.45      open
  2                  112.33      open
  3                 1170.96      open
  4                  152.59      open
  5                   88.08      open
  6                  846.62      open
  7                  374.32      open
  8                 1569.53      open
   
   
  Node Results at 8:30:00 hrs:
  ----------------------------------------------
                     Demand      Head  Pressure
  Node                 m3/h         m         m
  ----------------------------------------------
  1                  159.38    168.86      8.86
  2                  159.38    194.79     44.79
  3                  324.98    150.06      0.06
  4                  191.25    185.94     30.94
  5                  304.48    160.09      0.09
  6                  525.94    177.23     12.23
  7                -1665.40    210.00      0.00  Reservoir
   
   
  Link Results at 8:30:00 hrs:
  ------------------------------------
                       Flow     State
  Link                 m3/h          
  ------------------------------------
  1                  263.20      open
  2                  103.82      open
  3                 1242.83      open
  4                  147.19      open
  5                   73.97      open
  6                  904.39      open
  7                  378.45      open
  8                 1665.40      open
   
   
  Node Results at 8:45:00 hrs:
  ----------------------------------------------
                     Demand      Head  Pressure
  Node                 m3/h         m         m
  ----------------------------------------------
  1                  163.25    168.22      8.22
  2                  163.25    194.51     44.51
  3                  322.16    150.05      0.05
  4                  195.90    185.53     30.53
  5                  298.25    160.08      0.08
  6                  538.73    176.70     11.70
  7                -1681.55    210.00      0.00  Reservoir
   
   
  Link Results at 8:45:00 hrs:
  ------------------------------------
                       Flow     State
  Link                 m3/h          
  ------------------------------------
  1                  265.17      open
  2                  101.92      open
  3                 1253.13      open
  4                  146.28      open
  5                   73.95      open
  6                  910.94      open
  7                  372.21      open
  8                 1681.55      open
   
   
  Node Results at 9:00:00 hrs:
  ----------------------------------------------
                     Demand      Head  Pressure
  Node                 m3/h         m         m
  ----------------------------------------------
  1                  171.81    166.83      6.83
  2                  171.81    193.91     43.91
  3                  315.83    150.05      0.05
  4                  206.17    184.62     29.62
  5                  284.19    160.07      0.07
  6                  566.98    175.54     10.54
  7                -1716.79    210.00      0.00  Reservoir
   
   
  Link Results at 9:00:00 hrs:
  ------------------------------------
                       Flow     State
  Link                 m3/h          
  ------------------------------------
  1                  269.45      open
  2                   97.64      open
  3                 1275.53      open
  4                  144.27      open
  5                   73.92      open
  6                  925.09      open
  7                  358.11      open
  8                 1716.79      open
   
   
  Node Results at 9:15:00 hrs:
  ----------------------------------------------
                     Demand      Head  Pressure
  Node                 m3/h         m         m
  ----------------------------------------------
  1                  169.51    167.20      7.20
  2                  169.51    194.07     44.07
  3                  317.54    150.05      0.05
  4                  203.41    184.87     29.87
  5                  288.01    160.07      0.07
  6                  559.38    175.85     10.85
  7                -1707.37    210.00      0.00  Reservoir
   
   
  Link Results at 9:15:00 hrs:
  ------------------------------------
                       Flow     State
  Link                 m3/h          
  ------------------------------------
  1                  268.31      open
  2                   98.80      open
  3                 1269.55      open
  4                  144.81      open
  5                   73.93      open
  6                  921.33      open
  7                  361.94      open
  8                 1707.37      open
   
   
  Node Results at 9:30:00 hrs:
  ----------------------------------------------
                     Demand      Head  Pressure
  Node                 m3/h         m         m
  ----------------------------------------------
  1                  152.34    170.09     10.09
  2                  152.34    195.39     45.39
  3                  334.32    150.07      0.07
  4                  182.81    186.88     31.88
  5                  304.68    161.05      1.05
  6                  502.72    178.51     13.51
  7                -1629.20    210.00      0.00  Reservoir
   
   
  Link Results at 9:30:00 hrs:
  ------------------------------------
                       Flow     State
  Link                 m3/h          
  ------------------------------------
  1                  259.75      open
  2                  107.42      open
  3                 1217.11      open
  4                  149.24      open
  5                   77.66      open
  6                  885.06      open
  7                  382.34      open
  8                 1629.20      open
   
   
  Node Results at 9:45:00 hrs:
  ----------------------------------------------
                     Demand      Head  Pressure
  Node                 m3/h         m         m
  ----------------------------------------------
  1                  150.56    170.43     10.43
  2                  150.56    195.58     45.58
  3                  338.02    150.07      0.07
  4                  180.67    187.19     32.19
  5                  301.12    161.60      1.60
  6                  496.85    178.94     13.94
  7                -1617.78    210.00      0.00  Reservoir
   
   
  Link Results at 9:45:00 hrs:
  ------------------------------------
                       Flow     State
  Link                 m3/h          
  ------------------------------------
  1                  258.94      open
  2                  108.38      open
  3                 1208.29      open
  4                  149.90      open
  5                   79.75      open
  6                  877.72      open
  7                  380.87      open
  8                 1617.78      open
   
   
  Node Results at 10:00:00 hrs:
  ----------------------------------------------
                     Demand      Head  Pressure
  Node                 m3/h         m         m
  ----------------------------------------------
  1                  140.56    172.32     12.32
  2                  140.56    196.64     46.64
  3                  357.96    150.09      0.09
  4                  168.68    188.88     33.88
  5                  281.13    164.76      4.76
  6                  463.86    181.35     16.35
  7                -1552.75    210.00      0.00  Reservoir
   
   
  Link Results at 10:00:00 hrs:
  ------------------------------------
                       Flow     State
  Link                 m3/h          
  ------------------------------------
  1                  254.22      open
  2                  113.66      open
  3                 1157.96      open
  4                  153.50      open
  5                   90.80      open
  6                  835.78      open
  7                  371.92      open
  8                 1552.75      open
   
   
  Node Results at 10:15:00 hrs:
  ----------------------------------------------
                     Demand      Head  Pressure
  Node                 m3/h         m         m
  ----------------------------------------------
  1                  133.36    174.46     14.46
  2                  133.36    197.56     47.56
  3                  360.08    152.13      2.13
  4                  160.04    190.35     35.35
  5                  266.73    167.73      7.73
  6                  440.10    183.40     18.40
  7                -1493.68    210.00      0.00  Reservoir
   
   
  Link Results at 10:15:00 hrs:
  ------------------------------------
                       Flow     State
  Link                 m3/h          
  ------------------------------------
  1                  247.29      open
  2                  113.93      open
  3                 1113.02      open
  4                  152.29      open
  5                   93.87      open
  6                  800.70      open
  7                  360.59      open
  8                 1493.68      open
   
   
  Node Results at 10:30:00 hrs:
  ----------------------------------------------
                     Demand      Head  Pressure
  Node                 m3/h         m         m
  ----------------------------------------------
  1                  126.45    177.80     17.80
  2                  126.45    198.73     48.73
  3                  341.42    157.56      7.56
  4                  151.74    192.20     37.20
  5                  252.90    171.70     11.70
  6                  417.29    185.89     20.89
  7                -1416.26    210.00      0.00  Reservoir
   
   
  Link Results at 10:30:00 hrs:
  ------------------------------------
                       Flow     State
  Link                 m3/h          
  ------------------------------------
  1                  234.48      open
  2                  108.03      open
  3                 1055.33      open
  4                  144.39      open
  5                   89.00      open
  6                  759.20      open
  7                  341.90      open
  8                 1416.26      open
   
   
  Node Results at 10:45:00 hrs:
  ----------------------------------------------
                     Demand      Head  Pressure
  Node                 m3/h         m         m
  ----------------------------------------------
  1                  151.39    170.27     10.27
  2                  151.39    195.50     45.50
  3                  336.31    150.07      0.07
  4                  181.67    187.05     32.05
  5                  302.78    161.34      1.34
  6                  499.58    178.74     13.74
  7                -1623.11    210.00      0.00  Reservoir
   
   
  Link Results at 10:45:00 hrs:
  ------------------------------------
                       Flow     State
  Link                 m3/h          
  ------------------------------------
  1                  259.32      open
  2                  107.93      open
  3                 1212.40      open
  4                  149.59      open
  5                   78.78      open
  6                  881.14      open
  7                  381.56      open
  8                 1623.11      open
   
   
  Node Results at 11:00:00 hrs:
  ----------------------------------------------
                     Demand      Head  Pressure
  Node                 m3/h         m         m
  ----------------------------------------------
  1                  126.02    178.00     18.00
  2                  126.02    198.80     48.80
  3                  340.27    157.89      7.89
  4                  151.23    192.31     37.31
  5                  252.05    171.94     11.94
  6                  415.88    186.04     21.04
  7                -1411.48    210.00      0.00  Reservoir
   
   
  Link Results at 11:00:00 hrs:
  ------------------------------------
                       Flow     State
  Link                 m3/h          
  ------------------------------------
  1                  233.68      open
  2                  107.66      open
  3                 1051.77      open
  4                  143.91      open
  5                   88.70      open
  6                  756.63      open
  7                  340.75      open
  8                 1411.48      open
   
   
  Node Results at 11:15:00 hrs:
  ----------------------------------------------
                     Demand      Head  Pressure
  Node                 m3/h         m         m
  ----------------------------------------------
  1                  121.26    180.20     20.20
  2                  121.26    199.57     49.57
  3                  327.41    161.48     11.48
  4                  145.52    193.53     38.53
  5                  242.53    174.56     14.56
  6                  400.17    187.69     22.69
  7                -1358.14    210.00      0.00  Reservoir
   
   
  Link Results at 11:15:00 hrs:
  ------------------------------------
                       Flow     State
  Link                 m3/h          
  ------------------------------------
  1                  224.85      open
  2                  103.59      open
  3                 1012.02      open
  4                  138.47      open
  5                   85.35      open
  6                  728.04      open
  7                  327.87      open
  8                 1358.14      open
   
   
  Node Results at 11:30:00 hrs:
  ----------------------------------------------
                     Demand      Head  Pressure
  Node                 m3/h         m         m
  ----------------------------------------------
  1                  110.32    184.99     24.99
  2                  110.32    201.25     51.25
  3                  297.87    169.27     19.27
  4                  132.39    196.17     41.17
  5                  220.65    180.25     20.25
  6                  364.07    191.28     26.28
  7                -1235.63    210.00      0.00  Reservoir
   
   
  Link Results at 11:30:00 hrs:
  ------------------------------------
                       Flow     State
  Link                 m3/h          
  ------------------------------------
  1                  204.57      open
  2                   94.25      open
  3                  920.73      open
  4                  125.98      open
  5                   77.65      open
  6                  662.36      open
  7                  298.30      open
  8                 1235.63      open
   
   
  Node Results at 11:45:00 hrs:
  ----------------------------------------------
                     Demand      Head  Pressure
  Node                 m3/h         m         m
  ----------------------------------------------
  1                  119.74    180.89     20.89
  2                  119.74    199.81     49.81
  3                  323.29    162.60     12.60
  4                  143.68    193.91     38.91
  5                  239.47    175.38     15.38
  6                  395.13    188.21     23.21
  7                -1341.05    210.00      0.00  Reservoir
   
   
  Link Results at 11:45:00 hrs:
  ------------------------------------
                       Flow     State
  Link                 m3/h          
  ------------------------------------
  1                  222.02      open
  2                  102.29      open
  3                  999.29      open
  4                  136.73      open
  5                   84.27      open
  6                  718.88      open
  7                  323.75      open
  8                 1341.05      open
   
   
  Node Results at 12:00:00 hrs:
  ----------------------------------------------
                     Demand      Head  Pressure
  Node                 m3/h         m         m
  ----------------------------------------------
  1                   99.35    189.40     29.40
  2                   99.35    202.79     52.79
  3                  268.24    176.46     26.46
  4                  119.22    198.61     43.61
  5                  198.70    185.50     25.50
  6                  327.85    194.58     29.58
  7                -1112.70    210.00      0.00  Reservoir
   
   
  Link Results at 12:00:00 hrs:
  ------------------------------------
                       Flow     State
  Link                 m3/h          
  ------------------------------------
  1                  184.22      open
  2                   84.87      open
  3                  829.13      open
  4                  113.45      open
  5                   69.92      open
  6                  596.47      open
  7                  268.62      open
  8                 1112.70      open
   
   
  Node Results at 12:15:00 hrs:
  ----------------------------------------------
                     Demand      Head  Pressure
  Node                 m3/h         m         m
  ----------------------------------------------
  1                  104.87    187.23     27.23
  2                  104.87    202.03     52.03
  3                  283.15    172.92     22.92
  4                  125.85    197.41     42.41
  5                  209.74    182.92     22.92
  6                  346.07    192.95     27.95
  7                -1174.56    210.00      0.00  Reservoir
   
   
  Link Results at 12:15:00 hrs:
  ------------------------------------
                       Flow     State
  Link                 m3/h          
  ------------------------------------
  1                  194.46      open
  2                   89.59      open
  3                  875.22      open
  4                  119.75      open
  5                   73.81      open
  6                  629.63      open
  7                  283.55      open
  8                 1174.56      open
   
   
  Node Results at 12:30:00 hrs:
  ----------------------------------------------
                     Demand      Head  Pressure
  Node                 m3/h         m         m
  ----------------------------------------------
  1                   97.67    190.04     30.04
  2                   97.67    203.02     53.02
  3                  263.70    177.50     27.50
  4                  117.20    198.97     43.97
  5                  195.34    186.26     26.26
  6                  322.31    195.06     30.06
  7                -1093.89    210.00      0.00  Reservoir
   
   
  Link Results at 12:30:00 hrs:
  ------------------------------------
                       Flow     State
  Link                 m3/h          
  ------------------------------------
  1                  181.10      open
  2                   83.44      open
  3                  815.11      open
  4                  111.53      open
  5                   68.74      open
  6                  586.38      open
  7                  264.08      open
  8                 1093.89      open
   
   
  Node Results at 12:45:00 hrs:
  ----------------------------------------------
                     Demand      Head  Pressure
  Node                 m3/h         m         m
  ----------------------------------------------
  1                  103.44    187.80     27.80
  2                  103.44    202.23     52.23
  3                  279.29    173.85     23.85
  4                  124.13    197.73     42.73
  5                  206.88    183.60     23.60
  6                  341.35    193.38     28.38
  7                -1158.54    210.00      0.00  Reservoir
   
   
  Link Results at 12:45:00 hrs:
  ------------------------------------
                       Flow     State
  Link                 m3/h          
  ------------------------------------
  1                  191.81      open
  2                   88.37      open
  3                  863.29      open
  4                  118.12      open
  5                   72.80      open
  6                  621.04      open
  7                  279.69      open
  8                 1158.54      open
   
   
  Node Results at 13:00:00 hrs:
  ----------------------------------------------
                     Demand      Head  Pressure
  Node                 m3/h         m         m
  ----------------------------------------------
  1                   96.94    190.32     30.32
  2                   96.94    203.11     53.11
  3                  261.73    177.95     27.95
  4                  116.32    199.12     44.12
  5                  193.87    186.59     26.59
  6                  319.89    195.27     30.27
  7                -1085.67    210.00      0.00  Reservoir
   
   
  Link Results at 13:00:00 hrs:
  ------------------------------------
                       Flow     State
  Link                 m3/h          
  ------------------------------------
  1                  179.74      open
  2                   82.81      open
  3                  808.99      open
  4                  110.69      open
  5                   68.23      open
  6                  581.98      open
  7                  262.10      open
  8                 1085.67      open
   
   
  Node Results at 13:15:00 hrs:
  ----------------------------------------------
                     Demand      Head  Pressure
  Node                 m3/h         m         m
  ----------------------------------------------
  1                   92.85    191.82     31.82
  2                   92.85    203.64     53.64
  3                  250.70    180.40     30.40
  4                  111.42    199.95     44.95
  5                  185.71    188.38     28.38
  6                  306.41    196.39     31.39
  7                -1039.95    210.00      0.00  Reservoir
   
   
  Link Results at 13:15:00 hrs:
  ------------------------------------
                       Flow     State
  Link                 m3/h          
  ------------------------------------
  1                  172.17      open
  2                   79.32      open
  3                  774.92      open
  4                  106.03      open
  5                   65.35      open
  6                  557.47      open
  7                  251.06      open
  8                 1039.95      open
   
   
  Node Results at 13:30:00 hrs:
  ----------------------------------------------
                     Demand      Head  Pressure
  Node                 m3/h         m         m
  ----------------------------------------------
  1                  100.18    189.08     29.08
  2                  100.18    202.68     52.68
  3                  270.50    175.93     25.93
  4                  120.22    198.43     43.43
  5                  200.37    185.11     25.11
  6                  330.61    194.34     29.34
  7                -1122.06    210.00      0.00  Reservoir
   
   
  Link Results at 13:30:00 hrs:
  ------------------------------------
                       Flow     State
  Link                 m3/h          
  ------------------------------------
  1                  185.77      open
  2                   85.59      open
  3                  836.11      open
  4                  114.40      open
  5                   70.51      open
  6                  601.49      open
  7                  270.88      open
  8                 1122.06      open
   
   
  Node Results at 13:45:00 hrs:
  ----------------------------------------------
                     Demand      Head  Pressure
  Node                 m3/h         m         m
  ----------------------------------------------
  1                  103.18    187.90     27.90
  2                  103.18    202.27     52.27
  3                  278.60    174.02     24.02
  4                  123.82    197.78     42.78
  5                  206.37    183.72     23.72
  6                  340.51    193.46     28.46
  7                -1155.67    210.00      0.00  Reservoir
   
   
  Link Results at 13:45:00 hrs:
  ------------------------------------
                       Flow     State
  Link                 m3/h          
  ------------------------------------
  1                  191.33      open
  2                   88.15      open
  3                  861.15      open
  4                  117.83      open
  5                   72.62      open
  6                  619.50      open
  7                  278.99      open
  8                 1155.67      open
   
   
  Node Results at 14:00:00 hrs:
  ----------------------------------------------
                     Demand      Head  Pressure
  Node                 m3/h         m         m
  ----------------------------------------------
  1                  100.40    188.99     28.99
  2                  100.40    202.65     52.65
  3                  271.08    175.80     25.80
  4                  120.48    198.39     43.39
  5                  200.80    185.02     25.02
  6                  331.32    194.28     29.28
  7                -1124.47    210.00      0.00  Reservoir
   
   
  Link Results at 14:00:00 hrs:
  ------------------------------------
                       Flow     State
  Link                 m3/h          
  ------------------------------------
  1                  186.17      open
  2                   85.77      open
  3                  837.90      open
  4                  114.65      open
  5                   70.66      open
  6                  602.78      open
  7                  271.46      open
  8                 1124.47      open
   
   
  Node Results at 14:15:00 hrs:
  ----------------------------------------------
                     Demand      Head  Pressure
  Node                 m3/h         m         m
  ----------------------------------------------
  1                   99.89    189.19     29.19
  2                   99.89    202.72     52.72
  3                  269.70    176.12     26.12
  4                  119.87    198.50     43.50
  5                  199.78    185.25     25.25
  6                  329.64    194.42     29.42
  7                -1118.77    210.00      0.00  Reservoir
   
   
  Link Results at 14:15:00 hrs:
  ------------------------------------
                       Flow     State
  Link                 m3/h          
  ------------------------------------
  1                  185.22      open
  2                   85.33      open
  3                  833.66      open
  4                  114.06      open
  5                   70.31      open
  6                  599.72      open
  7                  270.09      open
  8                 1118.77      open
   
   
  Node Results at 14:30:00 hrs:
  ----------------------------------------------
                     Demand      Head  Pressure
  Node                 m3/h         m         m
  ----------------------------------------------
  1                   91.74    192.23     32.23
  2                   91.74    203.78     53.78
  3                  247.70    181.06     31.06
  4                  110.09    200.17     45.17
  5                  183.48    188.86     28.86
  6                  302.74    196.69     31.69
  7                -1027.50    210.00      0.00  Reservoir
   
   
  Link Results at 14:30:00 hrs:
  ------------------------------------
                       Flow     State
  Link                 m3/h          
  ------------------------------------
  1                  170.11      open
  2                   78.37      open
  3                  765.64      open
  4                  104.76      open
  5                   64.57      open
  6                  550.80      open
  7                  248.05      open
  8                 1027.50      open
   
   
  Node Results at 14:45:00 hrs:
  ----------------------------------------------
                     Demand      Head  Pressure
  Node                 m3/h         m         m
  ----------------------------------------------
  1                   90.43    192.69     32.69
  2                   90.43    203.94     53.94
  3                  244.17    181.82     31.82
  4                  108.52    200.43     45.43
  5                  180.87    189.41     29.41
  6                  298.43    197.04     32.04
  7                -1012.86    210.00      0.00  Reservoir
   
   
  Link Results at 14:45:00 hrs:
  ------------------------------------
                       Flow     State
  Link                 m3/h          
  ------------------------------------
  1                  167.69      open
  2                   77.26      open
  3                  754.74      open
  4                  103.27      open
  5                   63.65      open
  6                  542.95      open
  7                  244.52      open
  8                 1012.86      open
   
   
  Node Results at 15:00:00 hrs:
  ----------------------------------------------
                     Demand      Head  Pressure
  Node                 m3/h         m         m
  ----------------------------------------------
  1                   86.37    194.11     34.11
  2                   86.37    204.44     54.44
  3                  233.20    184.12     34.12
  4                  103.64    201.21     46.21
  5                  172.74    191.09     31.09
  6                  285.02    198.10     33.10
  7                 -967.33    210.00      0.00  Reservoir
   
   
  Link Results at 15:00:00 hrs:
  ------------------------------------
                       Flow     State
  Link                 m3/h          
  ------------------------------------
  1                  160.15      open
  2                   73.78      open
  3                  720.81      open
  4                   98.62      open
  5                   60.79      open
  6                  518.54      open
  7                  233.53      open
  8                  967.33      open
   
   
  Node Results at 15:15:00 hrs:
  ----------------------------------------------
                     Demand      Head  Pressure
  Node                 m3/h         m         m
  ----------------------------------------------
  1                   86.66    194.01     34.01
  2                   86.66    204.40     54.40
  3                  233.97    183.96     33.96
  4                  103.99    201.16     46.16
  5                  173.31    190.98     30.98
  6                  285.97    198.03     33.03
  7                 -970.55    210.00      0.00  Reservoir
   
   
  Link Results at 15:15:00 hrs:
  ------------------------------------
                       Flow     State
  Link                 m3/h          
  ------------------------------------
  1                  160.69      open
  2                   74.03      open
  3                  723.21      open
  4                   98.95      open
  5                   60.99      open
  6                  520.27      open
  7                  234.30      open
  8                  970.55      open
   
   
  Node Results at 15:30:00 hrs:
  ----------------------------------------------
                     Demand      Head  Pressure
  Node                 m3/h         m         m
  ----------------------------------------------
  1                   83.86    194.95     34.95
  2                   83.86    204.73     54.73
  3                  226.43    185.49     35.49
  4                  100.64    201.68     46.68
  5                  167.73    192.10     32.10
  6                  276.75    198.73     33.73
  7                 -939.27    210.00      0.00  Reservoir
   
   
  Link Results at 15:30:00 hrs:
  ------------------------------------
                       Flow     State
  Link                 m3/h          
  ------------------------------------
  1                  155.51      open
  2                   71.64      open
  3                  699.90      open
  4                   95.76      open
  5                   59.03      open
  6                  503.50      open
  7                  226.75      open
  8                  939.27      open
   
   
  Node Results at 15:45:00 hrs:
  ----------------------------------------------
                     Demand      Head  Pressure
  Node                 m3/h         m         m
  ----------------------------------------------
  1                   79.49    196.37     36.37
  2                   79.49    205.23     55.23
  3                  214.63    187.80     37.80
  4                   95.39    202.46     47.46
  5                  158.99    193.79     33.79
  6                  262.33    199.80     34.80
  7                 -890.34    210.00      0.00  Reservoir
   
   
  Link Results at 15:45:00 hrs:
  ------------------------------------
                       Flow     State
  Link                 m3/h          
  ------------------------------------
  1                  147.40      open
  2                   67.91      open
  3                  663.44      open
  4                   90.77      open
  5                   55.95      open
  6                  477.27      open
  7                  214.94      open
  8                  890.34      open
   
   
  Node Results at 16:00:00 hrs:
  ----------------------------------------------
                     Demand      Head  Pressure
  Node                 m3/h         m         m
  ----------------------------------------------
  1                   90.96    192.51     32.51
  2                   90.96    203.88     53.88
  3                  245.59    181.51     31.51
  4                  109.15    200.33     45.33
  5                  181.92    189.19     29.19
  6                  300.16    196.90     31.90
  7                -1018.73    210.00      0.00  Reservoir
   
   
  Link Results at 16:00:00 hrs:
  ------------------------------------
                       Flow     State
  Link                 m3/h          
  ------------------------------------
  1                  168.66      open
  2                   77.70      open
  3                  759.11      open
  4                  103.86      open
  5                   64.02      open
  6                  546.10      open
  7                  245.94      open
  8                 1018.73      open
   
   
  Node Results at 16:15:00 hrs:
  ----------------------------------------------
                     Demand      Head  Pressure
  Node                 m3/h         m         m
  ----------------------------------------------
  1                   89.78    192.92     32.92
  2                   89.78    204.02     54.02
  3                  242.40    182.19     32.19
  4                  107.74    200.56     45.56
  5                  179.56    189.69     29.69
  6                  296.27    197.22     32.22
  7                -1005.53    210.00      0.00  Reservoir
   
   
  Link Results at 16:15:00 hrs:
  ------------------------------------
                       Flow     State
  Link                 m3/h          
  ------------------------------------
  1                  166.48      open
  2                   76.70      open
  3                  749.27      open
  4                  102.52      open
  5                   63.19      open
  6                  539.02      open
  7                  242.75      open
  8                 1005.53      open
   
   
  Node Results at 16:30:00 hrs:
  ----------------------------------------------
                     Demand      Head  Pressure
  Node                 m3/h         m         m
  ----------------------------------------------
  1                   85.23    194.49     34.49
  2                   85.23    204.57     54.57
  3                  230.13    184.75     34.75
  4                  102.28    201.43     46.43
  5                  170.46    191.55     31.55
  6                  281.27    198.39     33.39
  7                 -954.60    210.00      0.00  Reservoir
   
   
  Link Results at 16:30:00 hrs:
  ------------------------------------
                       Flow     State
  Link                 m3/h          
  ------------------------------------
  1                  158.04      open
  2                   72.81      open
  3                  711.32      open
  4                   97.33      open
  5                   59.99      open
  6                  511.72      open
  7                  230.45      open
  8                  954.60      open
   
   
  Node Results at 16:45:00 hrs:
  ----------------------------------------------
                     Demand      Head  Pressure
  Node                 m3/h         m         m
  ----------------------------------------------
  1                   99.91    189.18     29.18
  2                   99.91    202.72     52.72
  3                  269.76    176.10     26.10
  4                  119.89    198.49     43.49
  5                  199.82    185.24     25.24
  6                  329.71    194.42     29.42
  7                -1119.00    210.00      0.00  Reservoir
   
   
  Link Results at 16:45:00 hrs:
  ------------------------------------
                       Flow     State
  Link                 m3/h          
  ------------------------------------
  1                  185.26      open
  2                   85.35      open
  3                  833.83      open
  4                  114.09      open
  5                   70.32      open
  6                  599.85      open
  7                  270.14      open
  8                 1119.00      open
   
   
  Node Results at 17:00:00 hrs:
  ----------------------------------------------
                     Demand      Head  Pressure
  Node                 m3/h         m         m
  ----------------------------------------------
  1                   94.56    191.20     31.20
  2                   94.56    203.42     53.42
  3                  255.30    179.39     29.39
  4                  113.47    199.61     44.61
  5                  189.11    187.64     27.64
  6                  312.04    195.93     30.93
  7                -1059.03    210.00      0.00  Reservoir
   
   
  Link Results at 17:00:00 hrs:
  ------------------------------------
                       Flow     State
  Link                 m3/h          
  ------------------------------------
  1                  175.33      open
  2                   80.78      open
  3                  789.14      open
  4                  107.97      open
  5                   66.55      open
  6                  567.70      open
  7                  255.66      open
  8                 1059.03      open
   
   
  Node Results at 17:15:00 hrs:
  ----------------------------------------------
                     Demand      Head  Pressure
  Node                 m3/h         m         m
  ----------------------------------------------
  1                  102.98    187.98     27.98
  2                  102.98    202.30     52.30
  3                  278.06    174.15     24.15
  4                  123.58    197.83     42.83
  5                  205.97    183.81     23.81
  6                  339.85    193.52     28.52
  7                -1153.42    210.00      0.00  Reservoir
   
   
  Link Results at 17:15:00 hrs:
  ------------------------------------
                       Flow     State
  Link                 m3/h          
  ------------------------------------
  1                  190.96      open
  2                   87.98      open
  3                  859.48      open
  4                  117.60      open
  5                   72.48      open
  6                  618.30      open
  7                  278.45      open
  8                 1153.42      open
   
   
  Node Results at 17:30:00 hrs:
  ----------------------------------------------
                     Demand      Head  Pressure
  Node                 m3/h         m         m
  ----------------------------------------------
  1                  109.80    185.21     25.21
  2                  109.80    201.32     51.32
  3                  296.46    169.63     19.63
  4                  131.76    196.29     41.29
  5                  219.60    180.51     20.51
  6                  362.33    191.44     26.44
  7                -1229.74    210.00      0.00  Reservoir
   
   
  Link Results at 17:30:00 hrs:
  ------------------------------------
                       Flow     State
  Link                 m3/h          
  ------------------------------------
  1                  203.60      open
  2                   93.80      open
  3                  916.35      open
  4                  125.38      open
  5                   77.28      open
  6                  659.21      open
  7                  296.88      open
  8                 1229.74      open
   
   
  Node Results at 17:45:00 hrs:
  ----------------------------------------------
                     Demand      Head  Pressure
  Node                 m3/h         m         m
  ----------------------------------------------
  1                  108.46    185.76     25.76
  2                  108.46    201.52     51.52
  3                  292.85    170.53     20.53
  4                  130.16    196.60     41.60
  5                  216.93    181.17     21.17
  6                  357.93    191.86     26.86
  7                -1214.79    210.00      0.00  Reservoir
   
   
  Link Results at 17:45:00 hrs:
  ------------------------------------
                       Flow     State
  Link                 m3/h          
  ------------------------------------
  1                  201.12      open
  2                   92.66      open
  3                  905.21      open
  4                  123.85      open
  5                   76.34      open
  6                  651.20      open
  7                  293.27      open
  8                 1214.79      open
   
   
  Node Results at 18:00:00 hrs:
  ----------------------------------------------
                     Demand      Head  Pressure
  Node                 m3/h         m         m
  ----------------------------------------------
  1                  117.52    181.88     21.88
  2                  117.52    200.16     50.16
  3                  317.30    164.22     14.22
  4                  141.02    194.45     39.45
  5                  235.04    176.56     16.56
  6                  387.82    188.95     23.95
  7                -1316.22    210.00      0.00  Reservoir
   
   
  Link Results at 18:00:00 hrs:
  ------------------------------------
                       Flow     State
  Link                 m3/h          
  ------------------------------------
  1                  217.91      open
  2                  100.39      open
  3                  980.79      open
  4                  134.20      open
  5                   82.71      open
  6                  705.57      open
  7                  317.75      open
  8                 1316.22      open
   
   
  Node Results at 18:15:00 hrs:
  ----------------------------------------------
                     Demand      Head  Pressure
  Node                 m3/h         m         m
  ----------------------------------------------
  1                  104.02    187.57     27.57
  2                  104.02    202.15     52.15
  3                  280.86    173.47     23.47
  4                  124.83    197.60     42.60
  5                  208.05    183.32     23.32
  6                  343.27    193.21     28.21
  7                -1165.05    210.00      0.00  Reservoir
   
   
  Link Results at 18:15:00 hrs:
  ------------------------------------
                       Flow     State
  Link                 m3/h          
  ------------------------------------
[...]
   
  Link Results at 163:30:00 hrs:
  ------------------------------------
                       Flow     State
  Link                 m3/h          
  ------------------------------------
  1                  236.50      open
  2                  108.96      open
  3                 1064.42      open
  4                  145.64      open
  5                   89.77      open
  6                  765.73      open
  7                  344.85      open
  8                 1428.46      open
   
   
  Node Results at 163:45:00 hrs:
  ----------------------------------------------
                     Demand      Head  Pressure
  Node                 m3/h         m         m
  ----------------------------------------------
  1                  131.77    175.25     15.25
  2                  131.77    197.84     47.84
  3                  355.77    153.41      3.41
  4                  158.12    190.79     35.79
  5                  263.53    168.66      8.66
  6                  434.83    183.98     18.98
  7                -1475.79    210.00      0.00  Reservoir
   
   
  Link Results at 163:45:00 hrs:
  ------------------------------------
                       Flow     State
  Link                 m3/h          
  ------------------------------------
  1                  244.33      open
  2                  112.57      open
  3                 1099.69      open
  4                  150.46      open
  5                   92.74      open
  6                  791.11      open
  7                  356.28      open
  8                 1475.79      open
   
   
  Node Results at 164:00:00 hrs:
  ----------------------------------------------
                     Demand      Head  Pressure
  Node                 m3/h         m         m
  ----------------------------------------------
  1                  129.48    176.36     16.36
  2                  129.48    198.23     48.23
  3                  349.58    155.22      5.22
  4                  155.37    191.40     36.40
  5                  258.95    169.98      9.98
  6                  427.27    184.82     19.82
  7                -1450.12    210.00      0.00  Reservoir
   
   
  Link Results at 164:00:00 hrs:
  ------------------------------------
                       Flow     State
  Link                 m3/h          
  ------------------------------------
  1                  240.08      open
  2                  110.61      open
  3                 1080.57      open
  4                  147.85      open
  5                   91.13      open
  6                  777.35      open
  7                  350.08      open
  8                 1450.12      open
   
   
  Node Results at 164:15:00 hrs:
  ----------------------------------------------
                     Demand      Head  Pressure
  Node                 m3/h         m         m
  ----------------------------------------------
  1                  120.36    180.61     20.61
  2                  120.36    199.72     49.72
  3                  324.96    162.15     12.15
  4                  144.43    193.75     38.75
  5                  240.71    175.05     15.05
  6                  397.17    188.00     23.00
  7                -1347.98    210.00      0.00  Reservoir
   
   
  Link Results at 164:15:00 hrs:
  ------------------------------------
                       Flow     State
  Link                 m3/h          
  ------------------------------------
  1                  223.17      open
  2                  102.82      open
  3                 1004.45      open
  4                  137.43      open
  5                   84.71      open
  6                  722.59      open
  7                  325.42      open
  8                 1347.98      open
   
   
  Node Results at 164:30:00 hrs:
  ----------------------------------------------
                     Demand      Head  Pressure
  Node                 m3/h         m         m
  ----------------------------------------------
  1                  127.75    177.18     17.18
  2                  127.75    198.52     48.52
  3                  344.93    156.56      6.56
  4                  153.30    191.86     36.86
  5                  255.51    170.96     10.96
  6                  421.59    185.43     20.43
  7                -1430.84    210.00      0.00  Reservoir
   
   
  Link Results at 164:30:00 hrs:
  ------------------------------------
                       Flow     State
  Link                 m3/h          
  ------------------------------------
  1                  236.89      open
  2                  109.14      open
  3                 1066.19      open
  4                  145.88      open
  5                   89.92      open
  6                  767.01      open
  7                  345.42      open
  8                 1430.84      open
   
   
  Node Results at 164:45:00 hrs:
  ----------------------------------------------
                     Demand      Head  Pressure
  Node                 m3/h         m         m
  ----------------------------------------------
  1                  122.90    179.45     19.45
  2                  122.90    199.31     49.31
  3                  331.84    160.26     10.26
  4                  147.48    193.11     38.11
  5                  245.81    173.66     13.66
  6                  405.58    187.13     22.13
  7                -1376.51    210.00      0.00  Reservoir
   
   
  Link Results at 164:45:00 hrs:
  ------------------------------------
                       Flow     State
  Link                 m3/h          
  ------------------------------------
  1                  227.90      open
  2                  104.99      open
  3                 1025.71      open
  4                  140.34      open
  5                   86.50      open
  6                  737.89      open
  7                  332.31      open
  8                 1376.51      open
   
   
  Node Results at 165:00:00 hrs:
  ----------------------------------------------
                     Demand      Head  Pressure
  Node                 m3/h         m         m
  ----------------------------------------------
  1                  122.72    179.53     19.53
  2                  122.72    199.34     49.34
  3                  331.36    160.39     10.39
  4                  147.27    193.16     38.16
  5                  245.45    173.76     13.76
  6                  404.99    187.19     22.19
  7                -1374.52    210.00      0.00  Reservoir
   
   
  Link Results at 165:00:00 hrs:
  ------------------------------------
                       Flow     State
  Link                 m3/h          
  ------------------------------------
  1                  227.57      open
  2                  104.84      open
  3                 1024.23      open
  4                  140.14      open
  5                   86.38      open
  6                  736.82      open
  7                  331.83      open
  8                 1374.52      open
   
   
  Node Results at 165:15:00 hrs:
  ----------------------------------------------
                     Demand      Head  Pressure
  Node                 m3/h         m         m
  ----------------------------------------------
  1                  120.20    180.68     20.68
  2                  120.20    199.74     49.74
  3                  324.54    162.26     12.26
  4                  144.24    193.79     38.79
  5                  240.40    175.13     15.13
  6                  396.66    188.05     23.05
  7                -1346.23    210.00      0.00  Reservoir
   
   
  Link Results at 165:15:00 hrs:
  ------------------------------------
                       Flow     State
  Link                 m3/h          
  ------------------------------------
  1                  222.88      open
  2                  102.68      open
  3                 1003.15      open
  4                  137.25      open
  5                   84.60      open
  6                  721.65      open
  7                  325.00      open
  8                 1346.23      open
   
   
  Node Results at 165:30:00 hrs:
  ----------------------------------------------
                     Demand      Head  Pressure
  Node                 m3/h         m         m
  ----------------------------------------------
  1                  133.81    174.24     14.24
  2                  133.81    197.49     47.49
  3                  361.29    151.77      1.77
  4                  160.57    190.23     35.23
  5                  267.62    167.47      7.47
  6                  441.58    183.23     18.23
  7                -1498.69    210.00      0.00  Reservoir
   
   
  Link Results at 165:30:00 hrs:
  ------------------------------------
                       Flow     State
  Link                 m3/h          
  ------------------------------------
  1                  248.12      open
  2                  114.31      open
  3                 1116.75      open
  4                  152.80      open
  5                   94.18      open
  6                  803.38      open
  7                  361.80      open
  8                 1498.69      open
   
   
  Node Results at 165:45:00 hrs:
  ----------------------------------------------
                     Demand      Head  Pressure
  Node                 m3/h         m         m
  ----------------------------------------------
  1                  131.12    175.56     15.56
  2                  131.12    197.95     47.95
  3                  354.03    153.92      3.92
  4                  157.35    190.96     35.96
  5                  262.25    169.04      9.04
  6                  432.71    184.22     19.22
  7                -1468.58    210.00      0.00  Reservoir
   
   
  Link Results at 165:45:00 hrs:
  ------------------------------------
                       Flow     State
  Link                 m3/h          
  ------------------------------------
  1                  243.14      open
  2                  112.02      open
  3                 1094.31      open
  4                  149.73      open
  5                   92.29      open
  6                  787.24      open
  7                  354.53      open
  8                 1468.58      open
   
   
  Node Results at 166:00:00 hrs:
  ----------------------------------------------
                     Demand      Head  Pressure
  Node                 m3/h         m         m
  ----------------------------------------------
  1                  126.50    177.77     17.77
  2                  126.50    198.72     48.72
  3                  341.56    157.52      7.52
  4                  151.81    192.18     37.18
  5                  253.01    171.67     11.67
  6                  417.46    185.88     20.88
  7                -1416.85    210.00      0.00  Reservoir
   
   
  Link Results at 166:00:00 hrs:
  ------------------------------------
                       Flow     State
  Link                 m3/h          
  ------------------------------------
  1                  234.57      open
  2                  108.07      open
  3                 1055.77      open
  4                  144.45      open
  5                   89.04      open
  6                  759.51      open
  7                  342.05      open
  8                 1416.85      open
   
   
  Node Results at 166:15:00 hrs:
  ----------------------------------------------
                     Demand      Head  Pressure
  Node                 m3/h         m         m
  ----------------------------------------------
  1                  123.91    178.99     18.99
  2                  123.91    199.15     49.15
  3                  334.55    159.50      9.50
  4                  148.69    192.85     37.85
  5                  247.81    173.11     13.11
  6                  408.89    186.78     21.78
  7                -1387.76    210.00      0.00  Reservoir
   
   
  Link Results at 166:15:00 hrs:
  ------------------------------------
                       Flow     State
  Link                 m3/h          
  ------------------------------------
  1                  229.76      open
  2                  105.85      open
  3                 1034.09      open
  4                  141.49      open
  5                   87.21      open
  6                  743.92      open
  7                  335.02      open
  8                 1387.76      open
   
   
  Node Results at 166:30:00 hrs:
  ----------------------------------------------
                     Demand      Head  Pressure
  Node                 m3/h         m         m
  ----------------------------------------------
  1                  126.81    177.63     17.63
  2                  126.81    198.67     48.67
  3                  342.40    157.29      7.29
  4                  152.18    192.10     37.10
  5                  253.63    171.49     11.49
  6                  418.48    185.77     20.77
  7                -1420.31    210.00      0.00  Reservoir
   
   
  Link Results at 166:30:00 hrs:
  ------------------------------------
                       Flow     State
  Link                 m3/h          
  ------------------------------------
  1                  235.15      open
  2                  108.33      open
  3                 1058.35      open
  4                  144.81      open
  5                   89.25      open
  6                  761.37      open
  7                  342.88      open
  8                 1420.31      open
   
   
  Node Results at 166:45:00 hrs:
  ----------------------------------------------
                     Demand      Head  Pressure
  Node                 m3/h         m         m
  ----------------------------------------------
  1                  132.09    175.09     15.09
  2                  132.09    197.78     47.78
  3                  356.64    153.15      3.15
  4                  158.51    190.70     35.70
  5                  264.18    168.47      8.47
  6                  435.90    183.87     18.87
  7                -1479.41    210.00      0.00  Reservoir
   
   
  Link Results at 166:45:00 hrs:
  ------------------------------------
                       Flow     State
  Link                 m3/h          
  ------------------------------------
  1                  244.93      open
  2                  112.84      open
  3                 1102.39      open
  4                  150.83      open
  5                   92.97      open
  6                  793.05      open
  7                  357.15      open
  8                 1479.41      open
   
   
  Node Results at 167:00:00 hrs:
  ----------------------------------------------
                     Demand      Head  Pressure
  Node                 m3/h         m         m
  ----------------------------------------------
  1                  105.57    186.95     26.95
  2                  105.57    201.93     51.93
  3                  285.04    172.46     22.46
  4                  126.68    197.26     42.26
  5                  211.14    182.58     22.58
  6                  348.38    192.74     27.74
  7                -1182.38    210.00      0.00  Reservoir
   
   
  Link Results at 167:00:00 hrs:
  ------------------------------------
                       Flow     State
  Link                 m3/h          
  ------------------------------------
  1                  195.76      open
  2                   90.19      open
  3                  881.05      open
  4                  120.55      open
  5                   74.30      open
  6                  633.82      open
  7                  285.44      open
  8                 1182.38      open
   
   
  Node Results at 167:15:00 hrs:
  ----------------------------------------------
                     Demand      Head  Pressure
  Node                 m3/h         m         m
  ----------------------------------------------
  1                  117.29    181.99     21.99
  2                  117.29    200.20     50.20
  3                  316.67    164.38     14.38
  4                  140.74    194.51     39.51
  5                  234.57    176.68     16.68
  6                  387.04    189.03     24.03
  7                -1313.60    210.00      0.00  Reservoir
   
   
  Link Results at 167:15:00 hrs:
  ------------------------------------
                       Flow     State
  Link                 m3/h          
  ------------------------------------
  1                  217.48      open
  2                  100.19      open
  3                  978.84      open
  4                  133.93      open
  5                   82.55      open
  6                  704.17      open
  7                  317.12      open
  8                 1313.60      open
   
   
  Node Results at 167:30:00 hrs:
  ----------------------------------------------
                     Demand      Head  Pressure
  Node                 m3/h         m         m
  ----------------------------------------------
  1                  104.47    187.39     27.39
  2                  104.47    202.09     52.09
  3                  282.07    173.18     23.18
  4                  125.37    197.50     42.50
  5                  208.94    183.11     23.11
  6                  344.76    193.07     28.07
  7                -1170.08    210.00      0.00  Reservoir
   
   
  Link Results at 167:30:00 hrs:
  ------------------------------------
                       Flow     State
  Link                 m3/h          
  ------------------------------------
  1                  193.72      open
  2                   89.25      open
  3                  871.89      open
  4                  119.30      open
  5                   73.53      open
  6                  627.23      open
  7                  282.47      open
  8                 1170.08      open
   
   
  Node Results at 167:45:00 hrs:
  ----------------------------------------------
                     Demand      Head  Pressure
  Node                 m3/h         m         m
  ----------------------------------------------
  1                   88.53    193.36     33.36
  2                   88.53    204.18     54.18
  3                  239.04    182.90     32.90
  4                  106.24    200.80     45.80
  5                  177.07    190.21     30.21
  6                  292.16    197.54     32.54
  7                 -991.57    210.00      0.00  Reservoir
   
   
  Link Results at 167:45:00 hrs:
  ------------------------------------
                       Flow     State
  Link                 m3/h          
  ------------------------------------
  1                  164.16      open
  2                   75.63      open
  3                  738.87      open
  4                  101.09      open
  5                   62.31      open
  6                  531.53      open
  7                  239.38      open
  8                  991.57      open
   
   
  Node Results at 168:00:00 hrs:
  ----------------------------------------------
                     Demand      Head  Pressure
  Node                 m3/h         m         m
  ----------------------------------------------
  1                   99.53    189.33     29.33
  2                   99.53    202.77     52.77
  3                  268.72    176.34     26.34
  4                  119.43    198.57     43.57
  5                  199.05    185.42     25.42
  6                  328.44    194.53     29.53
  7                -1114.69    210.00      0.00  Reservoir
   
   
  Link Results at 168:00:00 hrs:
  ------------------------------------
                       Flow     State
  Link                 m3/h          
  ------------------------------------
  1                  184.55      open
  2                   85.02      open
  3                  830.62      open
  4                  113.65      open
  5                   70.05      open
  6                  597.54      open
  7                  269.10      open
  8                 1114.69      open
   
  Analysis ended Tue Mar  7 12:01:35 2023
