  Page 1                                    Tue Mar  7 12:01:35 2023

  ******************************************************************
  *                           E P A N E T                          *
  *                   Hydraulic and Water Quality                  *
  *                   Analysis for Pipe Networks                   *
  *                         Version 2.2                            *
  ******************************************************************
  
  Analysis begun Tue Mar  7 12:01:35 2023

   
  Node Results at 0:00:00 hrs:
  ----------------------------------------------
                     Demand      Head  Pressure
  Node                 m3/h         m         m
  ----------------------------------------------
  1                  102.70    188.09     28.09
  2                  102.70    202.33     52.33
  3                  277.29    174.33     24.33
  4                  123.24    197.89     42.89
  5                  205.40    183.94     23.94
  6                  338.91    193.60     28.60
  7                -1150.25    210.00      0.00  Reservoir
   
   
  Link Results at 0:00:00 hrs:
  ------------------------------------
                       Flow     State
  Link                 m3/h          
  ------------------------------------
  1                  190.44      open
  2                   87.74      open
  3                  857.12      open
  4                  117.27      open
  5                   72.28      open
  6                  616.60      open
  7                  277.69      open
  8                 1150.25      open
   
   
  Node Results at 0:15:00 hrs:
  ----------------------------------------------
                     Demand      Head  Pressure
  Node                 m3/h         m         m
  ----------------------------------------------
  1                   81.94    195.58     35.58
  2                   81.94    204.96     54.96
  3                  221.23    186.52     36.52
  4                   98.32    202.03     47.03
  5                  163.87    192.85     32.85
  6                  270.39    199.21     34.21
  7                 -917.68    210.00      0.00  Reservoir
   
   
  Link Results at 0:15:00 hrs:
  ------------------------------------
                       Flow     State
  Link                 m3/h          
  ------------------------------------
  1                  151.93      open
  2                   70.00      open
  3                  683.81      open
  4                   93.56      open
  5                   57.67      open
  6                  491.93      open
  7                  221.54      open
  8                  917.68      open
   
   
  Node Results at 0:30:00 hrs:
  ----------------------------------------------
                     Demand      Head  Pressure
  Node                 m3/h         m         m
  ----------------------------------------------
  1                   76.66    197.25     37.25
  2                   76.66    205.54     55.54
  3                  206.98    189.25     39.25
  4                   91.99    202.95     47.95
  5                  153.32    194.84     34.84
  6                  252.98    200.46     35.46
  7                 -858.59    210.00      0.00  Reservoir
   
   
  Link Results at 0:30:00 hrs:
  ------------------------------------
                       Flow     State
  Link                 m3/h          
  ------------------------------------
  1                  142.15      open
  2                   65.49      open
  3                  639.78      open
  4                   87.54      open
  5                   53.96      open
  6                  460.25      open
  7                  207.28      open
  8                  858.59      open
   
   
  Node Results at 0:45:00 hrs:
  ----------------------------------------------
                     Demand      Head  Pressure
  Node                 m3/h         m         m
  ----------------------------------------------
  1                   76.35    197.35     37.35
  2                   76.35    205.57     55.57
  3                  206.15    189.40     39.40
  4                   91.62    203.01     48.01
  5                  152.71    194.95     34.95
  6                  251.96    200.53     35.53
  7                 -855.15    210.00      0.00  Reservoir
   
   
  Link Results at 0:45:00 hrs:
  ------------------------------------
                       Flow     State
  Link                 m3/h          
  ------------------------------------
  1                  141.58      open
  2                   65.23      open
  3                  637.22      open
  4                   87.19      open
  5                   53.74      open
  6                  458.41      open
  7                  206.44      open
  8                  855.15      open
   
   
  Node Results at 1:00:00 hrs:
  ----------------------------------------------
                     Demand      Head  Pressure
  Node                 m3/h         m         m
  ----------------------------------------------
  1                   68.96    199.52     39.52
  2                   68.96    206.33     56.33
  3                  186.20    192.94     42.94
  4                   82.76    204.21     49.21
  5                  137.93    197.54     37.54
  6                  227.58    202.16     37.16
  7                 -772.40    210.00      0.00  Reservoir
   
   
  Link Results at 1:00:00 hrs:
  ------------------------------------
                       Flow     State
  Link                 m3/h          
  ------------------------------------
  1                  127.88      open
  2                   58.91      open
  3                  575.56      open
  4                   78.75      open
  5                   48.54      open
  6                  414.05      open
  7                  186.47      open
  8                  772.40      open
   
   
  Node Results at 1:15:00 hrs:
  ----------------------------------------------
                     Demand      Head  Pressure
  Node                 m3/h         m         m
  ----------------------------------------------
  1                   52.09    203.77     43.77
  2                   52.09    207.82     57.82
  3                  140.63    199.86     49.86
  4                   62.50    206.56     51.56
  5                  104.17    202.59     42.59
  6                  171.89    205.34     40.34
  7                 -583.37    210.00      0.00  Reservoir
   
   
  Link Results at 1:15:00 hrs:
  ------------------------------------
                       Flow     State
  Link                 m3/h          
  ------------------------------------
  1                   96.58      open
  2                   44.50      open
  3                  434.70      open
  4                   59.48      open
  5                   36.66      open
  6                  312.72      open
  7                  140.83      open
  8                  583.37      open
   
   
  Node Results at 1:30:00 hrs:
  ----------------------------------------------
                     Demand      Head  Pressure
  Node                 m3/h         m         m
  ----------------------------------------------
  1                   58.00    202.40     42.40
  2                   58.00    207.34     57.34
  3                  156.61    197.62     47.62
  4                   69.61    205.80     50.80
  5                  116.01    200.96     40.96
  6                  191.41    204.31     39.31
  7                 -649.65    210.00      0.00  Reservoir
   
   
  Link Results at 1:30:00 hrs:
  ------------------------------------
                       Flow     State
  Link                 m3/h          
  ------------------------------------
  1                  107.56      open
  2                   49.55      open
  3                  484.09      open
  4                   66.23      open
  5                   40.82      open
  6                  348.25      open
  7                  156.83      open
  8                  649.65      open
   
   
  Node Results at 1:45:00 hrs:
  ----------------------------------------------
                     Demand      Head  Pressure
  Node                 m3/h         m         m
  ----------------------------------------------
  1                   51.23    203.96     43.96
  2                   51.23    207.89     57.89
  3                  138.32    200.16     50.16
  4                   61.47    206.66     51.66
  5                  102.46    202.81     42.81
  6                  169.05    205.48     40.48
  7                 -573.76    210.00      0.00  Reservoir
   
   
  Link Results at 1:45:00 hrs:
  ------------------------------------
                       Flow     State
  Link                 m3/h          
  ------------------------------------
  1                   94.99      open
  2                   43.76      open
  3                  427.54      open
  4                   58.50      open
  5                   36.06      open
  6                  307.57      open
  7                  138.51      open
  8                  573.76      open
   
   
  Node Results at 2:00:00 hrs:
  ----------------------------------------------
                     Demand      Head  Pressure
  Node                 m3/h         m         m
  ----------------------------------------------
  1                   49.59    204.31     44.31
  2                   49.59    208.01     58.01
  3                  133.89    200.74     50.74
  4                   59.50    206.86     51.86
  5                   99.17    203.23     43.23
  6                  163.64    205.74     40.74
  7                 -555.38    210.00      0.00  Reservoir
   
   
  Link Results at 2:00:00 hrs:
  ------------------------------------
                       Flow     State
  Link                 m3/h          
  ------------------------------------
  1                   91.95      open
  2                   42.36      open
  3                  413.84      open
  4                   56.62      open
  5                   34.90      open
  6                  297.71      open
  7                  134.08      open
  8                  555.38      open
   
   
  Node Results at 2:15:00 hrs:
  ----------------------------------------------
                     Demand      Head  Pressure
  Node                 m3/h         m         m
  ----------------------------------------------
  1                   49.60    204.31     44.31
  2                   49.60    208.01     58.01
  3                  133.93    200.73     50.73
  4                   59.52    206.85     51.85
  5                   99.21    203.23     43.23
  6                  163.69    205.74     40.74
  7                 -555.57    210.00      0.00  Reservoir
   
   
  Link Results at 2:15:00 hrs:
  ------------------------------------
                       Flow     State
  Link                 m3/h          
  ------------------------------------
  1                   91.98      open
  2                   42.38      open
  3                  413.98      open
  4                   56.64      open
  5                   34.91      open
  6                  297.81      open
  7                  134.12      open
  8                  555.57      open
   
   
  Node Results at 2:30:00 hrs:
  ----------------------------------------------
                     Demand      Head  Pressure
  Node                 m3/h         m         m
  ----------------------------------------------
  1                   46.31    204.99     44.99
  2                   46.31    208.25     58.25
  3                  125.03    201.84     51.84
  4                   55.57    207.23     52.23
  5                   92.61    204.04     44.04
  6                  152.81    206.25     41.25
  7                 -518.64    210.00      0.00  Reservoir
   
   
  Link Results at 2:30:00 hrs:
  ------------------------------------
                       Flow     State
  Link                 m3/h          
  ------------------------------------
  1                   85.87      open
  2                   39.56      open
  3                  386.47      open
  4                   52.88      open
  5                   32.59      open
  6                  278.02      open
  7                  125.21      open
  8                  518.64      open
   
   
  Node Results at 2:45:00 hrs:
  ----------------------------------------------
                     Demand      Head  Pressure
  Node                 m3/h         m         m
  ----------------------------------------------
  1                   48.16    204.61     44.61
  2                   48.16    208.11     58.11
  3                  130.04    201.23     51.23
  4                   57.79    207.02     52.02
  5                   96.32    203.59     43.59
  6                  158.94    205.97     40.97
  7                 -539.42    210.00      0.00  Reservoir
   
   
  Link Results at 2:45:00 hrs:
  ------------------------------------
                       Flow     State
  Link                 m3/h          
  ------------------------------------
  1                   89.31      open
  2                   41.14      open
  3                  401.95      open
  4                   55.00      open
  5                   33.90      open
  6                  289.16      open
  7                  130.22      open
  8                  539.42      open
   
   
  Node Results at 3:00:00 hrs:
  ----------------------------------------------
                     Demand      Head  Pressure
  Node                 m3/h         m         m
  ----------------------------------------------
  1                   42.44    205.74     45.74
  2                   42.44    208.51     58.51
  3                  114.58    203.06     53.06
  4                   50.92    207.64     52.64
  5                   84.87    204.93     44.93
  6                  140.04    206.81     41.81
  7                 -475.28    210.00      0.00  Reservoir
   
   
  Link Results at 3:00:00 hrs:
  ------------------------------------
                       Flow     State
  Link                 m3/h          
  ------------------------------------
  1                   78.69      open
  2                   36.25      open
  3                  354.15      open
  4                   48.46      open
  5                   29.87      open
  6                  254.77      open
  7                  114.74      open
  8                  475.28      open
   
   
  Node Results at 3:15:00 hrs:
  ----------------------------------------------
                     Demand      Head  Pressure
  Node                 m3/h         m         m
  ----------------------------------------------
  1                   36.74    206.74     46.74
  2                   36.74    208.86     58.86
  3                   99.21    204.68     54.68
  4                   44.09    208.19     53.19
  5                   73.49    206.12     46.12
  6                  121.26    207.56     42.56
  7                 -411.54    210.00      0.00  Reservoir
   
   
  Link Results at 3:15:00 hrs:
  ------------------------------------
                       Flow     State
  Link                 m3/h          
  ------------------------------------
  1                   68.13      open
  2                   31.39      open
  3                  306.66      open
  4                   41.96      open
  5                   25.86      open
  6                  220.61      open
  7                   99.35      open
  8                  411.54      open
   
   
  Node Results at 3:30:00 hrs:
  ----------------------------------------------
                     Demand      Head  Pressure
  Node                 m3/h         m         m
  ----------------------------------------------
  1                   34.15    207.15     47.15
  2                   34.15    209.00     59.00
  3                   92.19    205.36     55.36
  4                   40.98    208.42     53.42
  5                   68.29    206.61     46.61
  6                  112.68    207.87     42.87
  7                 -382.44    210.00      0.00  Reservoir
   
   
  Link Results at 3:30:00 hrs:
  ------------------------------------
                       Flow     State
  Link                 m3/h          
  ------------------------------------
  1                   63.32      open
  2                   29.17      open
  3                  284.97      open
  4                   38.99      open
  5                   24.03      open
  6                  205.01      open
  7                   92.33      open
  8                  382.44      open
   
   
  Node Results at 3:45:00 hrs:
  ----------------------------------------------
                     Demand      Head  Pressure
  Node                 m3/h         m         m
  ----------------------------------------------
  1                   31.39    207.56     47.56
  2                   31.39    209.15     59.15
  3                   84.75    206.03     56.03
  4                   37.67    208.65     53.65
  5                   62.78    207.10     47.10
  6                  103.58    208.17     43.17
  7                 -351.55    210.00      0.00  Reservoir
   
   
  Link Results at 3:45:00 hrs:
  ------------------------------------
                       Flow     State
  Link                 m3/h          
  ------------------------------------
  1                   58.20      open
  2                   26.81      open
  3                  261.96      open
  4                   35.84      open
  5                   22.09      open
  6                  188.45      open
  7                   84.87      open
  8                  351.55      open
   
   
  Node Results at 4:00:00 hrs:
  ----------------------------------------------
                     Demand      Head  Pressure
  Node                 m3/h         m         m
  ----------------------------------------------
  1                   33.59    207.24     47.24
  2                   33.59    209.03     59.03
  3                   90.68    205.50     55.50
  4                   40.30    208.47     53.47
  5                   67.17    206.71     46.71
  6                  110.83    207.93     42.93
  7                 -376.16    210.00      0.00  Reservoir
   
   
  Link Results at 4:00:00 hrs:
  ------------------------------------
                       Flow     State
  Link                 m3/h          
  ------------------------------------
  1                   62.28      open
  2                   28.69      open
  3                  280.30      open
  4                   38.35      open
  5                   23.64      open
  6                  201.64      open
  7                   90.81      open
  8                  376.16      open
   
   
  Node Results at 4:15:00 hrs:
  ----------------------------------------------
                     Demand      Head  Pressure
  Node                 m3/h         m         m
  ----------------------------------------------
  1                   31.21    207.59     47.59
  2                   31.21    209.16     59.16
  3                   84.25    206.07     56.07
  4                   37.45    208.67     53.67
  5                   62.41    207.13     47.13
  6                  102.98    208.19     43.19
  7                 -349.50    210.00      0.00  Reservoir
   
   
  Link Results at 4:15:00 hrs:
  ------------------------------------
                       Flow     State
  Link                 m3/h          
  ------------------------------------
  1                   57.86      open
  2                   26.66      open
  3                  260.43      open
  4                   35.63      open
  5                   21.96      open
  6                  187.35      open
  7                   84.37      open
  8                  349.50      open
   
   
  Node Results at 4:30:00 hrs:
  ----------------------------------------------
                     Demand      Head  Pressure
  Node                 m3/h         m         m
  ----------------------------------------------
  1                   35.69    206.91     46.91
  2                   35.69    208.92     58.92
  3                   96.37    204.96     54.96
  4                   42.83    208.29     53.29
  5                   71.38    206.32     46.32
  6                  117.78    207.68     42.68
  7                 -399.75    210.00      0.00  Reservoir
   
   
  Link Results at 4:30:00 hrs:
  ------------------------------------
                       Flow     State
  Link                 m3/h          
  ------------------------------------
  1                   66.18      open
  2                   30.49      open
  3                  297.88      open
  4                   40.76      open
  5                   25.12      open
  6                  214.29      open
  7                   96.51      open
  8                  399.75      open
   
   
  Node Results at 4:45:00 hrs:
  ----------------------------------------------
                     Demand      Head  Pressure
  Node                 m3/h         m         m
  ----------------------------------------------
  1                   35.41    206.95     46.95
  2                   35.41    208.93     58.93
  3                   95.60    205.04     55.04
  4                   42.49    208.31     53.31
  5                   70.82    206.37     46.37
  6                  116.85    207.72     42.72
  7                 -396.57    210.00      0.00  Reservoir
   
   
  Link Results at 4:45:00 hrs:
  ------------------------------------
                       Flow     State
  Link                 m3/h          
  ------------------------------------
  1                   65.66      open
  2                   30.25      open
  3                  295.50      open
  4                   40.43      open
  5                   24.92      open
  6                  212.58      open
  7                   95.74      open
  8                  396.57      open
   
   
  Node Results at 5:00:00 hrs:
  ----------------------------------------------
                     Demand      Head  Pressure
  Node                 m3/h         m         m
  ----------------------------------------------
  1                   31.83    207.50     47.50
  2                   31.83    209.12     59.12
  3                   85.94    205.92     55.92
  4                   38.20    208.62     53.62
  5                   63.66    207.02     47.02
  6                  105.04    208.13     43.13
  7                 -356.50    210.00      0.00  Reservoir
   
   
  Link Results at 5:00:00 hrs:
  ------------------------------------
                       Flow     State
  Link                 m3/h          
  ------------------------------------
  1                   59.02      open
  2                   27.19      open
  3                  265.65      open
  4                   36.35      open
  5                   22.40      open
  6                  191.10      open
  7                   86.06      open
  8                  356.50      open
   
   
  Node Results at 5:15:00 hrs:
  ----------------------------------------------
                     Demand      Head  Pressure
  Node                 m3/h         m         m
  ----------------------------------------------
  1                   42.24    205.77     45.77
  2                   42.24    208.52     58.52
  3                  114.06    203.12     53.12
  4                   50.69    207.66     52.66
  5                   84.49    204.97     44.97
  6                  139.40    206.84     41.84
  7                 -473.13    210.00      0.00  Reservoir
   
   
  Link Results at 5:15:00 hrs:
  ------------------------------------
                       Flow     State
  Link                 m3/h          
  ------------------------------------
  1                   78.33      open
  2                   36.09      open
  3                  352.55      open
  4                   48.24      open
  5                   29.73      open
  6                  253.62      open
  7                  114.22      open
  8                  473.13      open
   
   
  Node Results at 5:30:00 hrs:
  ----------------------------------------------
                     Demand      Head  Pressure
  Node                 m3/h         m         m
  ----------------------------------------------
  1                   43.03    205.63     45.63
  2                   43.03    208.47     58.47
  3                  116.17    202.88     52.88
  4                   51.63    207.58     52.58
  5                   86.05    204.80     44.80
  6                  141.99    206.73     41.73
  7                 -481.91    210.00      0.00  Reservoir
   
   
  Link Results at 5:30:00 hrs:
  ------------------------------------
                       Flow     State
  Link                 m3/h          
  ------------------------------------
  1                   79.78      open
  2                   36.76      open
  3                  359.09      open
  4                   49.13      open
  5                   30.28      open
  6                  258.33      open
  7                  116.34      open
  8                  481.91      open
   
   
  Node Results at 5:45:00 hrs:
  ----------------------------------------------
                     Demand      Head  Pressure
  Node                 m3/h         m         m
  ----------------------------------------------
  1                   40.19    206.15     46.15
  2                   40.19    208.65     58.65
  3                  108.50    203.73     53.73
  4                   48.22    207.87     52.87
  5                   80.37    205.42     45.42
  6                  132.61    207.12     42.12
  7                 -450.08    210.00      0.00  Reservoir
   
   
  Link Results at 5:45:00 hrs:
  ------------------------------------
                       Flow     State
  Link                 m3/h          
  ------------------------------------
  1                   74.51      open
  2                   34.33      open
  3                  335.38      open
  4                   45.89      open
  5                   28.28      open
  6                  241.27      open
  7                  108.65      open
  8                  450.08      open
   
   
  Node Results at 6:00:00 hrs:
  ----------------------------------------------
                     Demand      Head  Pressure
  Node                 m3/h         m         m
  ----------------------------------------------
  1                   59.08    202.13     42.13
  2                   59.08    207.25     57.25
  3                  159.51    197.19     47.19
  4                   70.89    205.65     50.65
  5                  118.16    200.64     40.64
  6                  194.96    204.11     39.11
  7                 -661.69    210.00      0.00  Reservoir
   
   
  Link Results at 6:00:00 hrs:
  ------------------------------------
                       Flow     State
  Link                 m3/h          
  ------------------------------------
  1                  109.55      open
  2                   50.47      open
  3                  493.06      open
  4                   67.46      open
  5                   41.58      open
  6                  354.70      open
  7                  159.74      open
  8                  661.69      open
   
   
  Node Results at 6:15:00 hrs:
  ----------------------------------------------
                     Demand      Head  Pressure
  Node                 m3/h         m         m
  ----------------------------------------------
  1                   56.23    202.82     42.82
  2                   56.23    207.49     57.49
  3                  151.82    198.31     48.31
  4                   67.48    206.03     51.03
  5                  112.46    201.46     41.46
  6                  185.56    204.63     39.63
  7                 -629.77    210.00      0.00  Reservoir
   
   
  Link Results at 6:15:00 hrs:
  ------------------------------------
                       Flow     State
  Link                 m3/h          
  ------------------------------------
  1                  104.27      open
  2                   48.04      open
  3                  469.28      open
  4                   64.21      open
  5                   39.58      open
  6                  337.59      open
  7                  152.04      open
  8                  629.77      open
   
   
  Node Results at 6:30:00 hrs:
  ----------------------------------------------
                     Demand      Head  Pressure
  Node                 m3/h         m         m
  ----------------------------------------------
  1                   82.00    195.56     35.56
  2                   82.00    204.95     54.95
  3                  221.41    186.49     36.49
  4                   98.40    202.02     47.02
  5                  164.00    192.83     32.83
  6                  270.61    199.19     34.19
  7                 -918.43    210.00      0.00  Reservoir
   
   
  Link Results at 6:30:00 hrs:
  ------------------------------------
                       Flow     State
  Link                 m3/h          
  ------------------------------------
  1                  152.06      open
  2                   70.05      open
  3                  684.37      open
  4                   93.64      open
  5                   57.72      open
  6                  492.33      open
  7                  221.72      open
  8                  918.43      open
   
   
  Node Results at 6:45:00 hrs:
  ----------------------------------------------
                     Demand      Head  Pressure
  Node                 m3/h         m         m
  ----------------------------------------------
  1                   99.90    189.19     29.19
  2                   99.90    202.72     52.72
  3                  269.74    176.11     26.11
  4                  119.88    198.49     43.49
  5                  199.80    185.24     25.24
  6                  329.68    194.42     29.42
  7                -1118.91    210.00      0.00  Reservoir
   
   
  Link Results at 6:45:00 hrs:
  ------------------------------------
                       Flow     State
  Link                 m3/h          
  ------------------------------------
  1                  185.25      open
  2                   85.34      open
  3                  833.76      open
  4                  114.08      open
  5                   70.31      open
  6                  599.80      open
  7                  270.12      open
  8                 1118.91      open
   
   
  Node Results at 7:00:00 hrs:
  ----------------------------------------------
                     Demand      Head  Pressure
  Node                 m3/h         m         m
  ----------------------------------------------
  1                  134.71    173.79     13.79
  2                  134.71    197.33     47.33
  3                  363.73    151.04      1.04
  4                  161.66    189.98     34.98
  5                  269.43    166.93      6.93
  6                  444.56    182.90     17.90
  7                -1508.81    210.00      0.00  Reservoir
   
   
  Link Results at 7:00:00 hrs:
  ------------------------------------
                       Flow     State
  Link                 m3/h          
  ------------------------------------
  1                  249.80      open
  2                  115.08      open
  3                 1124.29      open
  4                  153.83      open
  5                   94.82      open
  6                  808.80      open
  7                  364.25      open
  8                 1508.81      open
   
   
  Node Results at 7:15:00 hrs:
  ----------------------------------------------
                     Demand      Head  Pressure
  Node                 m3/h         m         m
  ----------------------------------------------
  1                  151.05    170.33     10.33
  2                  151.05    195.53     45.53
  3                  337.00    150.07      0.07
  4                  181.26    187.10     32.10
  5                  302.11    161.45      1.45
  6                  498.48    178.82     13.82
  7                -1620.96    210.00      0.00  Reservoir
   
   
  Link Results at 7:15:00 hrs:
  ------------------------------------
                       Flow     State
  Link                 m3/h          
  ------------------------------------
  1                  259.16      open
  2                  108.11      open
  3                 1210.74      open
  4                  149.72      open
  5                   79.18      open
  6                  879.76      open
  7                  381.28      open
  8                 1620.96      open
   
   
  Node Results at 7:30:00 hrs:
  ----------------------------------------------
                     Demand      Head  Pressure
  Node                 m3/h         m         m
  ----------------------------------------------
  1                  148.51    170.81     10.81
  2                  148.51    195.80     45.80
  3                  342.23    150.07      0.07
  4                  178.21    187.53     32.53
  5                  297.02    162.25      2.25
  6                  490.09    179.44     14.44
  7                -1604.58    210.00      0.00  Reservoir
   
   
  Link Results at 7:30:00 hrs:
  ------------------------------------
                       Flow     State
  Link                 m3/h          
  ------------------------------------
  1                  257.99      open
  2                  109.48      open
  3                 1198.08      open
  4                  150.65      open
  5                   82.10      open
  6                  869.22      open
  7                  379.13      open
  8                 1604.58      open
   
   
  Node Results at 7:45:00 hrs:
  ----------------------------------------------
                     Demand      Head  Pressure
  Node                 m3/h         m         m
  ----------------------------------------------
  1                  159.56    168.83      8.83
  2                  159.56    194.77     44.77
  3                  324.84    150.06      0.06
  4                  191.47    185.92     30.92
  5                  304.19    160.09      0.09
  6                  526.55    177.20     12.20
  7                -1666.18    210.00      0.00  Reservoir
   
   
  Link Results at 7:45:00 hrs:
  ------------------------------------
                       Flow     State
  Link                 m3/h          
  ------------------------------------
  1                  263.29      open
  2                  103.73      open
  3                 1243.32      open
  4                  147.14      open
  5                   73.97      open
  6                  904.71      open
  7                  378.16      open
  8                 1666.18      open
   
   
  Node Results at 8:00:00 hrs:
  ----------------------------------------------
                     Demand      Head  Pressure
  Node                 m3/h         m         m
  ----------------------------------------------
  1                  148.64    170.79     10.79
  2                  148.64    195.79     45.79
  3                  341.97    150.07      0.07
  4                  178.36    187.51     32.51
  5                  297.27    162.21      2.21
  6                  490.50    179.41     14.41
  7                -1605.38    210.00      0.00  Reservoir
   
   
  Link Results at 8:00:00 hrs:
  ------------------------------------
                       Flow     State
  Link                 m3/h          
  ------------------------------------
  1                  258.05      open
  2                  109.41      open
  3                 1198.70      open
  4                  150.60      open
  5                   81.96      open
  6                  869.73      open
  7                  379.23      open
  8                 1605.38      open
   
   
  Node Results at 8:15:00 hrs:
  ----------------------------------------------
                     Demand      Head  Pressure
  Node                 m3/h         m         m
  ----------------------------------------------
  1                  136.69    173.06     13.06
  2                  136.69    197.04     47.04
  3                  365.33    150.10      0.10
  4                  164.02    189.53     34.53
  5                  273.37    165.99      5.99
  6                  451.07    182.27     17.27
  7                -1527.17    210.00      0.00  Reservoir
   
   
  Link Results at 8:15:00 hrs:
  ------------------------------------
                       Flow     State
  Link                 m3/h          
  ------------------------------------
  1                  252.34      open
  2                  115.66      open
  3                 1138.14      open
  4                  154.87      open
  5                   94.81      open
  6                  819.24      open
  7                  368.18      open
  8                 1527.17      open
   
   
  Node Results at 8:30:00 hrs:
  ----------------------------------------------
                     Demand      Head  Pressure
  Node                 m3/h         m         m
  ----------------------------------------------
  1                  158.24    169.04      9.04
  2                  158.24    194.87     44.87
  3                  325.80    150.06      0.06
  4                  189.89    186.06     31.06
  5                  306.29    160.09      0.09
  6                  522.20    177.38     12.38
  7                -1660.66    210.00      0.00  Reservoir
   
   
  Link Results at 8:30:00 hrs:
  ------------------------------------
                       Flow     State
  Link                 m3/h          
  ------------------------------------
  1                  262.62      open
  2                  104.37      open
  3                 1239.80      open
  4                  147.45      open
  5                   73.97      open
  6                  902.46      open
  7                  380.26      open
  8                 1660.66      open
   
   
  Node Results at 8:45:00 hrs:
  ----------------------------------------------
                     Demand      Head  Pressure
  Node                 m3/h         m         m
  ----------------------------------------------
  1                  163.76    168.14      8.14
  2                  163.76    194.48     44.48
  3                  321.79    150.05      0.05
  4                  196.51    185.48     30.48
  5                  297.44    160.08      0.08
  6                  540.40    176.63     11.63
  7                -1683.65    210.00      0.00  Reservoir
   
   
  Link Results at 8:45:00 hrs:
  ------------------------------------
                       Flow     State
  Link                 m3/h          
  ------------------------------------
  1                  265.43      open
  2                  101.67      open
  3                 1254.46      open
  4                  146.16      open
  5                   73.95      open
  6                  911.79      open
  7                  371.39      open
  8                 1683.65      open
   
   
  Node Results at 9:00:00 hrs:
  ----------------------------------------------
                     Demand      Head  Pressure
  Node                 m3/h         m         m
  ----------------------------------------------
  1                  175.75    166.19      6.19
  2                  175.75    193.63     43.63
  3                  312.87    150.04      0.04
  4                  210.90    184.21     29.21
  5                  277.57    160.06      0.06
  6                  579.97    175.00     10.00
  7                -1732.80    210.00      0.00  Reservoir
   
   
  Link Results at 9:00:00 hrs:
  ------------------------------------
                       Flow     State
  Link                 m3/h          
  ------------------------------------
  1                  271.37      open
  2                   95.62      open
  3                 1285.68      open
  4                  143.34      open
  5                   73.91      open
  6                  931.44      open
  7                  351.48      open
  8                 1732.80      open
   
   
  Node Results at 9:15:00 hrs:
  ----------------------------------------------
                     Demand      Head  Pressure
  Node                 m3/h         m         m
  ----------------------------------------------
  1                  173.31    166.58      6.58
  2                  173.31    193.80     43.80
  3                  314.70    150.05      0.05
  4                  207.97    184.47     29.47
  5                  281.68    160.07      0.07
  6                  571.93    175.33     10.33
  7                -1722.91    210.00      0.00  Reservoir
   
   
  Link Results at 9:15:00 hrs:
  ------------------------------------
                       Flow     State
  Link                 m3/h          
  ------------------------------------
  1                  270.18      open
  2                   96.87      open
  3                 1279.41      open
  4                  143.91      open
  5                   73.92      open
  6                  927.52      open
  7                  355.59      open
  8                 1722.91      open
   
   
  Node Results at 9:30:00 hrs:
  ----------------------------------------------
                     Demand      Head  Pressure
  Node                 m3/h         m         m
  ----------------------------------------------
  1                  151.13    170.32     10.32
  2                  151.13    195.52     45.52
  3                  336.84    150.07      0.07
  4                  181.36    187.09     32.09
  5                  302.26    161.43      1.43
  6                  498.73    178.80     13.80
  7                -1621.45    210.00      0.00  Reservoir
   
   
  Link Results at 9:30:00 hrs:
  ------------------------------------
                       Flow     State
  Link                 m3/h          
  ------------------------------------
  1                  259.20      open
  2                  108.07      open
  3                 1211.12      open
  4                  149.69      open
  5                   79.09      open
  6                  880.08      open
  7                  381.35      open
  8                 1621.45      open
   
   
  Node Results at 9:45:00 hrs:
  ----------------------------------------------
                     Demand      Head  Pressure
  Node                 m3/h         m         m
  ----------------------------------------------
  1                  149.63    170.60     10.60
  2                  149.63    195.68     45.68
  3                  339.93    150.07      0.07
  4                  179.56    187.34     32.34
  5                  299.27    161.89      1.89
  6                  493.79    179.17     14.17
  7                -1611.81    210.00      0.00  Reservoir
   
   
  Link Results at 9:45:00 hrs:
  ------------------------------------
                       Flow     State
  Link                 m3/h          
  ------------------------------------
  1                  258.51      open
  2                  108.88      open
  3                 1203.67      open
  4                  150.24      open
  5                   80.82      open
  6                  873.87      open
  7                  380.09      open
  8                 1611.81      open
   
   
  Node Results at 10:00:00 hrs:
  ----------------------------------------------
                     Demand      Head  Pressure
  Node                 m3/h         m         m
  ----------------------------------------------
  1                  137.42    172.92     12.92
  2                  137.42    196.97     46.97
  3                  363.96    150.10      0.10
  4                  164.90    189.40     34.40
  5                  274.83    165.75      5.75
  6                  453.48    182.10     17.10
  7                -1532.00    210.00      0.00  Reservoir
   
   
  Link Results at 10:00:00 hrs:
  ------------------------------------
                       Flow     State
  Link                 m3/h          
  ------------------------------------
  1                  252.70      open
  2                  115.28      open
  3                 1141.89      open
  4                  154.61      open
  5                   94.06      open
  6                  822.37      open
  7                  368.90      open
  8                 1532.00      open
   
   
  Node Results at 10:15:00 hrs:
  ----------------------------------------------
                     Demand      Head  Pressure
  Node                 m3/h         m         m
  ----------------------------------------------
  1                  129.22    176.48     16.48
  2                  129.22    198.27     48.27
  3                  348.90    155.41      5.41
  4                  155.07    191.47     36.47
  5                  258.45    170.13     10.13
  6                  426.44    184.91     19.91
  7                -1447.31    210.00      0.00  Reservoir
   
   
  Link Results at 10:15:00 hrs:
  ------------------------------------
                       Flow     State
  Link                 m3/h          
  ------------------------------------
  1                  239.62      open
  2                  110.39      open
  3                 1078.47      open
  4                  147.56      open
  5                   90.95      open
  6                  775.84      open
  7                  349.40      open
  8                 1447.31      open
   
   
  Node Results at 10:30:00 hrs:
  ----------------------------------------------
                     Demand      Head  Pressure
  Node                 m3/h         m         m
  ----------------------------------------------
  1                  121.64    180.03     20.03
  2                  121.64    199.51     49.51
  3                  328.44    161.20     11.20
  4                  145.97    193.43     38.43
  5                  243.29    174.35     14.35
  6                  401.43    187.56     22.56
  7                -1362.42    210.00      0.00  Reservoir
   
   
  Link Results at 10:30:00 hrs:
  ------------------------------------
                       Flow     State
  Link                 m3/h          
  ------------------------------------
  1                  225.56      open
  2                  103.92      open
  3                 1015.21      open
  4                  138.91      open
  5                   85.62      open
  6                  730.33      open
  7                  328.91      open
  8                 1362.42      open
   
   
  Node Results at 10:45:00 hrs:
  ----------------------------------------------
                     Demand      Head  Pressure
  Node                 m3/h         m         m
  ----------------------------------------------
  1                  156.68    169.30      9.30
  2                  156.68    194.98     44.98
  3                  326.93    150.06      0.06
  4                  188.01    186.23     31.23
  5                  308.77    160.10      0.10
  6                  517.03    177.59     12.59
  7                -1654.09    210.00      0.00  Reservoir
   
   
  Link Results at 10:45:00 hrs:
  ------------------------------------
                       Flow     State
  Link                 m3/h          
  ------------------------------------
  1                  261.81      open
  2                  105.13      open
  3                 1235.61      open
  4                  147.81      open
  5                   73.98      open
  6                  899.78      open
  7                  382.75      open
  8                 1654.09      open
   
   
  Node Results at 11:00:00 hrs:
  ----------------------------------------------
                     Demand      Head  Pressure
  Node                 m3/h         m         m
  ----------------------------------------------
  1                  124.70    178.62     18.62
  2                  124.70    199.02     49.02
  3                  336.69    158.90      8.90
  4                  149.64    192.65     37.65
  5                  249.40    172.67     12.67
  6                  411.51    186.51     21.51
  7                -1396.64    210.00      0.00  Reservoir
   
   
  Link Results at 11:00:00 hrs:
  ------------------------------------
                       Flow     State
  Link                 m3/h          
  ------------------------------------
  1                  231.23      open
  2                  106.53      open
  3                 1040.71      open
  4                  142.39      open
  5                   87.77      open
  6                  748.68      open
  7                  337.17      open
  8                 1396.64      open
   
   
  Node Results at 11:15:00 hrs:
  ----------------------------------------------
                     Demand      Head  Pressure
  Node                 m3/h         m         m
  ----------------------------------------------
  1                  120.17    180.70     20.70
  2                  120.17    199.75     49.75
  3                  324.46    162.28     12.28
  4                  144.21    193.80     38.80
  5                  240.34    175.15     15.15
  6                  396.57    188.06     23.06
  7                -1345.92    210.00      0.00  Reservoir
   
   
  Link Results at 11:15:00 hrs:
  ------------------------------------
                       Flow     State
  Link                 m3/h          
  ------------------------------------
  1                  222.83      open
  2                  102.66      open
  3                 1002.92      open
  4                  137.22      open
  5                   84.58      open
  6                  721.49      open
  7                  324.92      open
  8                 1345.92      open
   
   
  Node Results at 11:30:00 hrs:
  ----------------------------------------------
                     Demand      Head  Pressure
  Node                 m3/h         m         m
  ----------------------------------------------
  1                  107.33    186.23     26.23
  2                  107.33    201.68     51.68
  3                  289.80    171.29     21.29
  4                  128.80    196.86     41.86
  5                  214.67    181.73     21.73
  6                  354.20    192.20     27.20
  7                -1202.15    210.00      0.00  Reservoir
   
   
  Link Results at 11:30:00 hrs:
  ------------------------------------
                       Flow     State
  Link                 m3/h          
  ------------------------------------
  1                  199.03      open
  2                   91.69      open
  3                  895.79      open
  4                  122.56      open
  5                   75.55      open
  6                  644.42      open
  7                  290.21      open
  8                 1202.15      open
   
   
  Node Results at 11:45:00 hrs:
  ----------------------------------------------
                     Demand      Head  Pressure
  Node                 m3/h         m         m
  ----------------------------------------------
  1                  121.52    180.09     20.09
  2                  121.52    199.53     49.53
  3                  328.09    161.29     11.29
  4                  145.82    193.46     38.46
  5                  243.03    174.42     14.42
  6                  401.00    187.61     22.61
  7                -1360.97    210.00      0.00  Reservoir
   
   
  Link Results at 11:45:00 hrs:
  ------------------------------------
                       Flow     State
  Link                 m3/h          
  ------------------------------------
  1                  225.32      open
  2                  103.81      open
  3                 1014.13      open
  4                  138.76      open
  5                   85.53      open
  6                  729.56      open
  7                  328.56      open
  8                 1360.97      open
   
   
  Node Results at 12:00:00 hrs:
  ----------------------------------------------
                     Demand      Head  Pressure
  Node                 m3/h         m         m
  ----------------------------------------------
  1                   95.80    190.74     30.74
  2                   95.80    203.26     53.26
  3                  258.65    178.64     28.64
  4                  114.96    199.35     44.35
  5                  191.60    187.09     27.09
  6                  316.13    195.58     30.58
  7                -1072.93    210.00      0.00  Reservoir
   
   
  Link Results at 12:00:00 hrs:
  ------------------------------------
                       Flow     State
  Link                 m3/h          
  ------------------------------------
  1                  177.64      open
  2                   81.84      open
  3                  799.50      open
  4                  109.39      open
  5                   67.43      open
  6                  575.15      open
  7                  259.02      open
  8                 1072.93      open
   
   
  Node Results at 12:15:00 hrs:
  ----------------------------------------------
                     Demand      Head  Pressure
  Node                 m3/h         m         m
  ----------------------------------------------
  1                  104.42    187.41     27.41
  2                  104.42    202.10     52.10
  3                  281.93    173.22     23.22
  4                  125.30    197.51     42.51
  5                  208.84    183.13     23.13
  6                  344.58    193.09     28.09
  7                -1169.49    210.00      0.00  Reservoir
   
   
  Link Results at 12:15:00 hrs:
  ------------------------------------
                       Flow     State
  Link                 m3/h          
  ------------------------------------
  1                  193.62      open
  2                   89.20      open
  3                  871.45      open
  4                  119.24      open
  5                   73.49      open
  6                  626.91      open
  7                  282.33      open
  8                 1169.49      open
   
   
  Node Results at 12:30:00 hrs:
  ----------------------------------------------
                     Demand      Head  Pressure
  Node                 m3/h         m         m
  ----------------------------------------------
  1                   95.82    190.73     30.73
  2                   95.82    203.26     53.26
  3                  258.71    178.63     28.63
  4                  114.98    199.35     44.35
  5                  191.64    187.09     27.09
  6                  316.21    195.58     30.58
  7                -1073.18    210.00      0.00  Reservoir
   
   
  Link Results at 12:30:00 hrs:
  ------------------------------------
                       Flow     State
  Link                 m3/h          
  ------------------------------------
  1                  177.68      open
  2                   81.86      open
  3                  799.69      open
  4                  109.42      open
  5                   67.44      open
  6                  575.29      open
  7                  259.08      open
  8                 1073.18      open
   
   
  Node Results at 12:45:00 hrs:
  ----------------------------------------------
                     Demand      Head  Pressure
  Node                 m3/h         m         m
  ----------------------------------------------
  1                  104.22    187.49     27.49
  2                  104.22    202.12     52.12
  3                  281.40    173.34     23.34
  4                  125.07    197.55     42.55
  5                  208.45    183.22     23.22
  6                  343.94    193.15     28.15
  7                -1167.30    210.00      0.00  Reservoir
   
   
  Link Results at 12:45:00 hrs:
  ------------------------------------
                       Flow     State
  Link                 m3/h          
  ------------------------------------
  1                  193.26      open
  2                   89.04      open
  3                  869.82      open
  4                  119.01      open
  5                   73.36      open
  6                  625.74      open
  7                  281.80      open
  8                 1167.30      open
   
   
  Node Results at 13:00:00 hrs:
  ----------------------------------------------
                     Demand      Head  Pressure
  Node                 m3/h         m         m
  ----------------------------------------------
  1                   95.91    190.70     30.70
  2                   95.91    203.25     53.25
  3                  258.97    178.57     28.57
  4                  115.10    199.33     44.33
  5                  191.83    187.04     27.04
  6                  316.51    195.55     30.55
  7                -1074.23    210.00      0.00  Reservoir
   
   
  Link Results at 13:00:00 hrs:
  ------------------------------------
                       Flow     State
  Link                 m3/h          
  ------------------------------------
  1                  177.85      open
  2                   81.94      open
  3                  800.47      open
  4                  109.52      open
  5                   67.51      open
  6                  575.85      open
  7                  259.33      open
  8                 1074.23      open
   
   
  Node Results at 13:15:00 hrs:
  ----------------------------------------------
                     Demand      Head  Pressure
  Node                 m3/h         m         m
  ----------------------------------------------
  1                   90.49    192.67     32.67
  2                   90.49    203.94     53.94
  3                  244.33    181.78     31.78
  4                  108.59    200.42     45.42
  5                  180.99    189.39     29.39
  6                  298.63    197.03     32.03
  7                -1013.52    210.00      0.00  Reservoir
   
   
  Link Results at 13:15:00 hrs:
  ------------------------------------
                       Flow     State
  Link                 m3/h          
  ------------------------------------
  1                  167.80      open
  2                   77.31      open
  3                  755.23      open
  4                  103.33      open
  5                   63.69      open
  6                  543.30      open
  7                  244.68      open
  8                 1013.52      open
   
   
  Node Results at 13:30:00 hrs:
  ----------------------------------------------
                     Demand      Head  Pressure
  Node                 m3/h         m         m
  ----------------------------------------------
  1                  100.13    189.10     29.10
  2                  100.13    202.69     52.69
  3                  270.34    175.97     25.97
  4                  120.15    198.44     43.44
  5                  200.26    185.14     25.14
  6                  330.42    194.35     29.35
  7                -1121.43    210.00      0.00  Reservoir
   
   
  Link Results at 13:30:00 hrs:
  ------------------------------------
                       Flow     State
  Link                 m3/h          
  ------------------------------------
  1                  185.66      open
  2                   85.54      open
  3                  835.64      open
  4                  114.34      open
  5                   70.47      open
  6                  601.15      open
  7                  270.73      open
  8                 1121.43      open
   
   
  Node Results at 13:45:00 hrs:
  ----------------------------------------------
                     Demand      Head  Pressure
  Node                 m3/h         m         m
  ----------------------------------------------
  1                  104.05    187.56     27.56
  2                  104.05    202.15     52.15
  3                  280.93    173.46     23.46
  4                  124.86    197.59     42.59
  5                  208.09    183.31     23.31
  6                  343.35    193.20     28.20
  7                -1165.32    210.00      0.00  Reservoir
   
   
  Link Results at 13:45:00 hrs:
  ------------------------------------
                       Flow     State
  Link                 m3/h          
  ------------------------------------
  1                  192.93      open
  2                   88.88      open
  3                  868.34      open
  4                  118.81      open
  5                   73.23      open
  6                  624.68      open
  7                  281.32      open
  8                 1165.32      open
   
   
  Node Results at 14:00:00 hrs:
  ----------------------------------------------
                     Demand      Head  Pressure
  Node                 m3/h         m         m
  ----------------------------------------------
  1                  100.53    188.94     28.94
  2                  100.53    202.63     52.63
  3                  271.44    175.71     25.71
  4                  120.64    198.36     43.36
  5                  201.06    184.95     24.95
  6                  331.76    194.24     29.24
  7                -1125.96    210.00      0.00  Reservoir
   
   
  Link Results at 14:00:00 hrs:
  ------------------------------------
                       Flow     State
  Link                 m3/h          
  ------------------------------------
  1                  186.41      open
  2                   85.88      open
  3                  839.01      open
  4                  114.80      open
  5                   70.76      open
  6                  603.58      open
  7                  271.82      open
  8                 1125.96      open
   
   
  Node Results at 14:15:00 hrs:
  ----------------------------------------------
                     Demand      Head  Pressure
  Node                 m3/h         m         m
  ----------------------------------------------
  1                  100.48    188.96     28.96
  2                  100.48    202.64     52.64
  3                  271.31    175.74     25.74
  4                  120.58    198.37     43.37
  5                  200.97    184.98     24.98
  6                  331.60    194.25     29.25
  7                -1125.42    210.00      0.00  Reservoir
   
   
  Link Results at 14:15:00 hrs:
  ------------------------------------
                       Flow     State
  Link                 m3/h          
  ------------------------------------
  1                  186.32      open
  2                   85.84      open
  3                  838.61      open
  4                  114.74      open
  5                   70.72      open
  6                  603.29      open
  7                  271.69      open
  8                 1125.42      open
   
   
  Node Results at 14:30:00 hrs:
  ----------------------------------------------
                     Demand      Head  Pressure
  Node                 m3/h         m         m
  ----------------------------------------------
  1                   90.53    192.66     32.66
  2                   90.53    203.93     53.93
  3                  244.43    181.76     31.76
  4                  108.64    200.41     45.41
  5                  181.06    189.37     29.37
  6                  298.75    197.02     32.02
  7                -1013.95    210.00      0.00  Reservoir
   
   
  Link Results at 14:30:00 hrs:
  ------------------------------------
                       Flow     State
  Link                 m3/h          
  ------------------------------------
  1                  167.87      open
  2                   77.34      open
  3                  755.55      open
  4                  103.38      open
  5                   63.72      open
  6                  543.53      open
  7                  244.78      open
  8                 1013.95      open
   
   
  Node Results at 14:45:00 hrs:
  ----------------------------------------------
                     Demand      Head  Pressure
  Node                 m3/h         m         m
  ----------------------------------------------
  1                   89.76    192.93     32.93
  2                   89.76    204.03     54.03
  3                  242.36    182.20     32.20
  4                  107.72    200.56     45.56
  5                  179.53    189.70     29.70
  6                  296.22    197.22     32.22
  7                -1005.35    210.00      0.00  Reservoir
   
   
  Link Results at 14:45:00 hrs:
  ------------------------------------
                       Flow     State
  Link                 m3/h          
  ------------------------------------
  1                  166.45      open
  2                   76.68      open
  3                  749.14      open
  4                  102.50      open
  5                   63.18      open
  6                  538.92      open
  7                  242.70      open
  8                 1005.35      open
   
   
  Node Results at 15:00:00 hrs:
  ----------------------------------------------
                     Demand      Head  Pressure
  Node                 m3/h         m         m
  ----------------------------------------------
  1                   85.16    194.52     34.52
  2                   85.16    204.58     54.58
  3                  229.93    184.79     34.79
  4                  102.19    201.44     46.44
  5                  170.32    191.58     31.58
  6                  281.02    198.41     33.41
  7                 -953.77    210.00      0.00  Reservoir
   
   
  Link Results at 15:00:00 hrs:
  ------------------------------------
                       Flow     State
  Link                 m3/h          
  ------------------------------------
  1                  157.91      open
  2                   72.75      open
  3                  710.71      open
  4                   97.24      open
  5                   59.94      open
  6                  511.28      open
  7                  230.25      open
  8                  953.77      open
   
   
  Node Results at 15:15:00 hrs:
  ----------------------------------------------
                     Demand      Head  Pressure
  Node                 m3/h         m         m
  ----------------------------------------------
  1                   86.02    194.22     34.22
  2                   86.02    204.48     54.48
  3                  232.25    184.31     34.31
  4                  103.22    201.28     46.28
  5                  172.04    191.24     31.24
  6                  283.86    198.19     33.19
  7                 -963.42    210.00      0.00  Reservoir
   
   
  Link Results at 15:15:00 hrs:
  ------------------------------------
                       Flow     State
  Link                 m3/h          
  ------------------------------------
  1                  159.50      open
  2                   73.48      open
  3                  717.90      open
  4                   98.23      open
  5                   60.54      open
  6                  516.45      open
  7                  232.58      open
  8                  963.42      open
   
   
  Node Results at 15:30:00 hrs:
  ----------------------------------------------
                     Demand      Head  Pressure
  Node                 m3/h         m         m
  ----------------------------------------------
  1                   82.43    195.42     35.42
  2                   82.43    204.90     54.90
  3                  222.56    186.26     36.26
  4                   98.92    201.94     46.94
  5                  164.86    192.66     32.66
  6                  272.02    199.09     34.09
  7                 -923.21    210.00      0.00  Reservoir
   
   
  Link Results at 15:30:00 hrs:
  ------------------------------------
                       Flow     State
  Link                 m3/h          
  ------------------------------------
  1                  152.85      open
  2                   70.42      open
  3                  687.93      open
  4                   94.13      open
  5                   58.02      open
  6                  494.89      open
  7                  222.87      open
  8                  923.21      open
   
   
  Node Results at 15:45:00 hrs:
  ----------------------------------------------
                     Demand      Head  Pressure
  Node                 m3/h         m         m
  ----------------------------------------------
  1                   76.43    197.32     37.32
  2                   76.43    205.56     55.56
  3                  206.37    189.36     39.36
  4                   91.72    202.99     47.99
  5                  152.87    194.92     34.92
  6                  252.23    200.51     35.51
  7                 -856.04    210.00      0.00  Reservoir
   
   
  Link Results at 15:45:00 hrs:
  ------------------------------------
                       Flow     State
  Link                 m3/h          
  ------------------------------------
  1                  141.73      open
  2                   65.29      open
  3                  637.89      open
  4                   87.28      open
  5                   53.80      open
  6                  458.89      open
  7                  206.66      open
  8                  856.04      open
   
   
  Node Results at 16:00:00 hrs:
  ----------------------------------------------
                     Demand      Head  Pressure
  Node                 m3/h         m         m
  ----------------------------------------------
  1                   91.28    192.39     32.39
  2                   91.28    203.84     53.84
  3                  246.45    181.33     31.33
  4                  109.53    200.26     45.26
  5                  182.56    189.06     29.06
  6                  301.22    196.82     31.82
  7                -1022.31    210.00      0.00  Reservoir
   
   
  Link Results at 16:00:00 hrs:
  ------------------------------------
                       Flow     State
  Link                 m3/h          
  ------------------------------------
  1                  169.25      open
  2                   77.98      open
  3                  761.78      open
  4                  104.23      open
  5                   64.24      open
  6                  548.01      open
  7                  246.80      open
  8                 1022.31      open
   
   
  Node Results at 16:15:00 hrs:
  ----------------------------------------------
                     Demand      Head  Pressure
  Node                 m3/h         m         m
  ----------------------------------------------
  1                   89.04    193.18     33.18
  2                   89.04    204.12     54.12
  3                  240.41    182.62     32.62
  4                  106.85    200.70     45.70
  5                  178.08    190.00     30.00
  6                  293.83    197.41     32.41
  7                 -997.25    210.00      0.00  Reservoir
   
   
  Link Results at 16:15:00 hrs:
  ------------------------------------
                       Flow     State
  Link                 m3/h          
  ------------------------------------
  1                  165.10      open
  2                   76.06      open
  3                  743.10      open
  4                  101.67      open
  5                   62.67      open
  6                  534.58      open
  7                  240.75      open
  8                  997.25      open
   
   
  Node Results at 16:30:00 hrs:
  ----------------------------------------------
                     Demand      Head  Pressure
  Node                 m3/h         m         m
  ----------------------------------------------
  1                   82.15    195.51     35.51
  2                   82.15    204.93     54.93
  3                  221.81    186.41     36.41
  4                   98.58    201.99     46.99
  5                  164.30    192.77     32.77
  6                  271.10    199.15     34.15
  7                 -920.10    210.00      0.00  Reservoir
   
   
  Link Results at 16:30:00 hrs:
  ------------------------------------
                       Flow     State
  Link                 m3/h          
  ------------------------------------
  1                  152.33      open
  2                   70.18      open
  3                  685.61      open
  4                   93.81      open
  5                   57.82      open
  6                  493.22      open
  7                  222.12      open
  8                  920.10      open
   
   
  Node Results at 16:45:00 hrs:
  ----------------------------------------------
                     Demand      Head  Pressure
  Node                 m3/h         m         m
  ----------------------------------------------
  1                  100.81    188.84     28.84
  2                  100.81    202.59     52.59
  3                  272.19    175.54     25.54
  4                  120.97    198.30     43.30
  5                  201.62    184.83     24.83
  6                  332.68    194.16     29.16
  7                -1129.08    210.00      0.00  Reservoir
   
   
  Link Results at 16:45:00 hrs:
  ------------------------------------
                       Flow     State
  Link                 m3/h          
  ------------------------------------
  1                  186.93      open
  2                   86.12      open
  3                  841.34      open
  4                  115.12      open
  5                   70.95      open
  6                  605.25      open
  7                  272.57      open
  8                 1129.08      open
   
   
  Node Results at 17:00:00 hrs:
  ----------------------------------------------
                     Demand      Head  Pressure
  Node                 m3/h         m         m
  ----------------------------------------------
  1                   92.74    191.87     31.87
  2                   92.74    203.65     53.65
  3                  250.40    180.47     30.47
  4                  111.29    199.97     44.97
  5                  185.48    188.43     28.43
  6                  306.05    196.42     31.42
  7                -1038.71    210.00      0.00  Reservoir
   
   
  Link Results at 17:00:00 hrs:
  ------------------------------------
                       Flow     State
  Link                 m3/h          
  ------------------------------------
  1                  171.97      open
  2                   79.23      open
  3                  774.00      open
  4                  105.90      open
  5                   65.27      open
  6                  556.80      open
  7                  250.76      open
  8                 1038.71      open
   
   
  Node Results at 17:15:00 hrs:
  ----------------------------------------------
                     Demand      Head  Pressure
  Node                 m3/h         m         m
  ----------------------------------------------
  1                  103.09    187.94     27.94
  2                  103.09    202.28     52.28
  3                  278.35    174.08     24.08
  4                  123.71    197.80     42.80
  5                  206.18    183.76     23.76
  6                  340.20    193.49     28.49
  7                -1154.62    210.00      0.00  Reservoir
   
   
  Link Results at 17:15:00 hrs:
  ------------------------------------
                       Flow     State
  Link                 m3/h          
  ------------------------------------
  1                  191.16      open
  2                   88.07      open
  3                  860.37      open
  4                  117.72      open
  5                   72.56      open
  6                  618.94      open
  7                  278.74      open
  8                 1154.62      open
   
   
  Node Results at 17:30:00 hrs:
  ----------------------------------------------
                     Demand      Head  Pressure
  Node                 m3/h         m         m
  ----------------------------------------------
  1                  111.33    184.56     24.56
  2                  111.33    201.10     51.10
  3                  300.60    168.58     18.58
  4                  133.60    195.94     40.94
  5                  222.66    179.74     19.74
  6                  367.40    190.96     25.96
  7                -1246.92    210.00      0.00  Reservoir
   
   
  Link Results at 17:30:00 hrs:
  ------------------------------------
                       Flow     State
  Link                 m3/h          
  ------------------------------------
  1                  206.44      open
  2                   95.11      open
  3                  929.15      open
  4                  127.13      open
  5                   78.36      open
  6                  668.42      open
  7                  301.02      open
  8                 1246.92      open
   
   
  Node Results at 17:45:00 hrs:
  ----------------------------------------------
                     Demand      Head  Pressure
  Node                 m3/h         m         m
  ----------------------------------------------
  1                  108.74    185.65     25.65
  2                  108.74    201.48     51.48
  3                  293.60    170.35     20.35
  4                  130.49    196.54     41.54
  5                  217.48    181.04     21.04
  6                  358.85    191.77     26.77
  7                -1217.90    210.00      0.00  Reservoir
   
   
  Link Results at 17:45:00 hrs:
  ------------------------------------
                       Flow     State
  Link                 m3/h          
  ------------------------------------
  1                  201.64      open
  2                   92.90      open
  3                  907.52      open
  4                  124.17      open
  5                   76.54      open
  6                  652.86      open
  7                  294.02      open
  8                 1217.90      open
   
   
  Node Results at 18:00:00 hrs:
  ----------------------------------------------
                     Demand      Head  Pressure
  Node                 m3/h         m         m
  ----------------------------------------------
  1                  120.03    180.76     20.76
  2                  120.03    199.77     49.77
  3                  324.07    162.39     12.39
  4                  144.03    193.84     38.84
  5                  240.05    175.22     15.22
  6                  396.09    188.11     23.11
  7                -1344.30    210.00      0.00  Reservoir
   
   
  Link Results at 18:00:00 hrs:
  ------------------------------------
                       Flow     State
  Link                 m3/h          
  ------------------------------------
  1                  222.56      open
  2                  102.54      open
  3                 1001.71      open
  4                  137.06      open
  5                   84.48      open
  6                  720.62      open
  7                  324.53      open
  8                 1344.30      open
   
   
  Node Results at 18:15:00 hrs:
  ----------------------------------------------
                     Demand      Head  Pressure
  Node                 m3/h         m         m
  ----------------------------------------------
  1                  101.25    188.66     28.66
  2                  101.25    202.53     52.53
  3                  273.37    175.26     25.26
  4                  121.50    198.20     43.20
  5                  202.50    184.62     24.62
  6                  334.12    194.03     29.03
  7                -1133.98    210.00      0.00  Reservoir
   
   
  Link Results at 18:15:00 hrs:
  ------------------------------------
                       Flow     State
  Link                 m3/h          
  ------------------------------------
[...]
   
  Link Results at 163:30:00 hrs:
  ------------------------------------
                       Flow     State
  Link                 m3/h          
  ------------------------------------
  1                  237.55      open
  2                  109.44      open
  3                 1069.16      open
  4                  146.29      open
  5                   90.17      open
  6                  769.14      open
  7                  346.38      open
  8                 1434.81      open
   
   
  Node Results at 163:45:00 hrs:
  ----------------------------------------------
                     Demand      Head  Pressure
  Node                 m3/h         m         m
  ----------------------------------------------
  1                  132.92    174.68     14.68
  2                  132.92    197.64     47.64
  3                  358.89    152.49      2.49
  4                  159.51    190.47     35.47
  5                  265.84    167.99      7.99
  6                  438.64    183.56     18.56
  7                -1488.71    210.00      0.00  Reservoir
   
   
  Link Results at 163:45:00 hrs:
  ------------------------------------
                       Flow     State
  Link                 m3/h          
  ------------------------------------
  1                  246.47      open
  2                  113.55      open
  3                 1109.32      open
  4                  151.78      open
  5                   93.55      open
  6                  798.03      open
  7                  359.40      open
  8                 1488.71      open
   
   
  Node Results at 164:00:00 hrs:
  ----------------------------------------------
                     Demand      Head  Pressure
  Node                 m3/h         m         m
  ----------------------------------------------
  1                  129.30    176.44     16.44
  2                  129.30    198.26     48.26
  3                  349.11    155.35      5.35
  4                  155.16    191.45     36.45
  5                  258.60    170.08     10.08
  6                  426.69    184.88     19.88
  7                -1448.16    210.00      0.00  Reservoir
   
   
  Link Results at 164:00:00 hrs:
  ------------------------------------
                       Flow     State
  Link                 m3/h          
  ------------------------------------
  1                  239.76      open
  2                  110.46      open
  3                 1079.10      open
  4                  147.65      open
  5                   91.01      open
  6                  776.30      open
  7                  349.61      open
  8                 1448.16      open
   
   
  Node Results at 164:15:00 hrs:
  ----------------------------------------------
                     Demand      Head  Pressure
  Node                 m3/h         m         m
  ----------------------------------------------
  1                  116.91    182.15     22.15
  2                  116.91    200.26     50.26
  3                  315.66    164.65     14.65
  4                  140.29    194.60     39.60
  5                  233.82    176.88     16.88
  6                  385.80    189.15     24.15
  7                -1309.39    210.00      0.00  Reservoir
   
   
  Link Results at 164:15:00 hrs:
  ------------------------------------
                       Flow     State
  Link                 m3/h          
  ------------------------------------
  1                  216.78      open
  2                   99.87      open
  3                  975.69      open
  4                  133.50      open
  5                   82.28      open
  6                  701.90      open
  7                  316.10      open
  8                 1309.39      open
   
   
  Node Results at 164:30:00 hrs:
  ----------------------------------------------
                     Demand      Head  Pressure
  Node                 m3/h         m         m
  ----------------------------------------------
  1                  126.78    177.64     17.64
  2                  126.78    198.68     48.68
  3                  342.32    157.31      7.31
  4                  152.14    192.11     37.11
  5                  253.57    171.51     11.51
  6                  418.39    185.78     20.78
  7                -1419.99    210.00      0.00  Reservoir
   
   
  Link Results at 164:30:00 hrs:
  ------------------------------------
                       Flow     State
  Link                 m3/h          
  ------------------------------------
  1                  235.09      open
  2                  108.31      open
  3                 1058.11      open
  4                  144.77      open
  5                   89.23      open
  6                  761.19      open
  7                  342.80      open
  8                 1419.99      open
   
   
  Node Results at 164:45:00 hrs:
  ----------------------------------------------
                     Demand      Head  Pressure
  Node                 m3/h         m         m
  ----------------------------------------------
  1                  120.44    180.58     20.58
  2                  120.44    199.70     49.70
  3                  325.18    162.09     12.09
  4                  144.53    193.73     38.73
  5                  240.88    175.00     15.00
  6                  397.45    187.97     22.97
  7                -1348.91    210.00      0.00  Reservoir
   
   
  Link Results at 164:45:00 hrs:
  ------------------------------------
                       Flow     State
  Link                 m3/h          
  ------------------------------------
  1                  223.33      open
  2                  102.89      open
  3                 1005.15      open
  4                  137.53      open
  5                   84.77      open
  6                  723.09      open
  7                  325.65      open
  8                 1348.91      open
   
   
  Node Results at 165:00:00 hrs:
  ----------------------------------------------
                     Demand      Head  Pressure
  Node                 m3/h         m         m
  ----------------------------------------------
  1                  120.30    180.64     20.64
  2                  120.30    199.73     49.73
  3                  324.81    162.19     12.19
  4                  144.36    193.77     38.77
  5                  240.60    175.08     15.08
  6                  396.99    188.02     23.02
  7                -1347.35    210.00      0.00  Reservoir
   
   
  Link Results at 165:00:00 hrs:
  ------------------------------------
                       Flow     State
  Link                 m3/h          
  ------------------------------------
  1                  223.07      open
  2                  102.77      open
  3                 1003.99      open
  4                  137.37      open
  5                   84.67      open
  6                  722.26      open
  7                  325.27      open
  8                 1347.35      open
   
   
  Node Results at 165:15:00 hrs:
  ----------------------------------------------
                     Demand      Head  Pressure
  Node                 m3/h         m         m
  ----------------------------------------------
  1                  116.91    182.15     22.15
  2                  116.91    200.25     50.25
  3                  315.67    164.65     14.65
  4                  140.30    194.60     39.60
  5                  233.83    176.88     16.88
  6                  385.81    189.15     24.15
  7                -1309.43    210.00      0.00  Reservoir
   
   
  Link Results at 165:15:00 hrs:
  ------------------------------------
                       Flow     State
  Link                 m3/h          
  ------------------------------------
  1                  216.79      open
  2                   99.88      open
  3                  975.73      open
  4                  133.50      open
  5                   82.29      open
  6                  701.93      open
  7                  316.11      open
  8                 1309.43      open
   
   
  Node Results at 165:30:00 hrs:
  ----------------------------------------------
                     Demand      Head  Pressure
  Node                 m3/h         m         m
  ----------------------------------------------
  1                  134.99    173.65     13.65
  2                  134.99    197.28     47.28
  3                  364.47    150.82      0.82
  4                  161.99    189.91     34.91
  5                  269.98    166.77      6.77
  6                  445.47    182.79     17.79
  7                -1511.89    210.00      0.00  Reservoir
   
   
  Link Results at 165:30:00 hrs:
  ------------------------------------
                       Flow     State
  Link                 m3/h          
  ------------------------------------
  1                  250.31      open
  2                  115.32      open
  3                 1126.59      open
  4                  154.14      open
  5                   95.01      open
  6                  810.46      open
  7                  364.99      open
  8                 1511.89      open
   
   
  Node Results at 165:45:00 hrs:
  ----------------------------------------------
                     Demand      Head  Pressure
  Node                 m3/h         m         m
  ----------------------------------------------
  1                  131.38    175.44     15.44
  2                  131.38    197.91     47.91
  3                  354.72    153.72      3.72
  4                  157.65    190.89     35.89
  5                  262.76    168.89      8.89
  6                  433.55    184.13     19.13
  7                -1471.43    210.00      0.00  Reservoir
   
   
  Link Results at 165:45:00 hrs:
  ------------------------------------
                       Flow     State
  Link                 m3/h          
  ------------------------------------
  1                  243.61      open
  2                  112.23      open
  3                 1096.44      open
  4                  150.02      open
  5                   92.47      open
  6                  788.77      open
  7                  355.22      open
  8                 1471.43      open
   
   
  Node Results at 166:00:00 hrs:
  ----------------------------------------------
                     Demand      Head  Pressure
  Node                 m3/h         m         m
  ----------------------------------------------
  1                  125.34    178.32     18.32
  2                  125.34    198.91     48.91
  3                  338.42    158.41      8.41
  4                  150.41    192.49     37.49
  5                  250.68    172.32     12.32
  6                  413.62    186.28     21.28
  7                -1403.80    210.00      0.00  Reservoir
   
   
  Link Results at 166:00:00 hrs:
  ------------------------------------
                       Flow     State
  Link                 m3/h          
  ------------------------------------
  1                  232.41      open
  2                  107.07      open
  3                 1046.05      open
  4                  143.12      open
  5                   88.22      open
  6                  752.51      open
  7                  338.90      open
  8                 1403.80      open
   
   
  Node Results at 166:15:00 hrs:
  ----------------------------------------------
                     Demand      Head  Pressure
  Node                 m3/h         m         m
  ----------------------------------------------
  1                  122.23    179.76     19.76
  2                  122.23    199.42     49.42
  3                  330.03    160.76     10.76
  4                  146.68    193.28     38.28
  5                  244.47    174.03     14.03
  6                  403.37    187.36     22.36
  7                -1369.01    210.00      0.00  Reservoir
   
   
  Link Results at 166:15:00 hrs:
  ------------------------------------
                       Flow     State
  Link                 m3/h          
  ------------------------------------
  1                  226.65      open
  2                  104.42      open
  3                 1020.12      open
  4                  139.58      open
  5                   86.03      open
  6                  733.86      open
  7                  330.50      open
  8                 1369.01      open
   
   
  Node Results at 166:30:00 hrs:
  ----------------------------------------------
                     Demand      Head  Pressure
  Node                 m3/h         m         m
  ----------------------------------------------
  1                  126.75    177.65     17.65
  2                  126.75    198.68     48.68
  3                  342.24    157.33      7.33
  4                  152.10    192.12     37.12
  5                  253.51    171.53     11.53
  6                  418.29    185.79     20.79
  7                -1419.64    210.00      0.00  Reservoir
   
   
  Link Results at 166:30:00 hrs:
  ------------------------------------
                       Flow     State
  Link                 m3/h          
  ------------------------------------
  1                  235.04      open
  2                  108.28      open
  3                 1057.85      open
  4                  144.74      open
  5                   89.21      open
  6                  761.01      open
  7                  342.72      open
  8                 1419.64      open
   
   
  Node Results at 166:45:00 hrs:
  ----------------------------------------------
                     Demand      Head  Pressure
  Node                 m3/h         m         m
  ----------------------------------------------
  1                  134.77    173.77     13.77
  2                  134.77    197.32     47.32
  3                  363.87    151.00      1.00
  4                  161.72    189.97     34.97
  5                  269.54    166.90      6.90
  6                  444.73    182.88     17.88
  7                -1509.40    210.00      0.00  Reservoir
   
   
  Link Results at 166:45:00 hrs:
  ------------------------------------
                       Flow     State
  Link                 m3/h          
  ------------------------------------
  1                  249.90      open
  2                  115.13      open
  3                 1124.74      open
  4                  153.89      open
  5                   94.85      open
  6                  809.12      open
  7                  364.39      open
  8                 1509.40      open
   
   
  Node Results at 167:00:00 hrs:
  ----------------------------------------------
                     Demand      Head  Pressure
  Node                 m3/h         m         m
  ----------------------------------------------
  1                  100.76    188.85     28.85
  2                  100.76    202.60     52.60
  3                  272.05    175.57     25.57
  4                  120.91    198.31     43.31
  5                  201.52    184.85     24.85
  6                  332.51    194.17     29.17
  7                -1128.51    210.00      0.00  Reservoir
   
   
  Link Results at 167:00:00 hrs:
  ------------------------------------
                       Flow     State
  Link                 m3/h          
  ------------------------------------
  1                  186.84      open
  2                   86.08      open
  3                  840.91      open
  4                  115.06      open
  5                   70.92      open
  6                  604.94      open
  7                  272.44      open
  8                 1128.51      open
   
   
  Node Results at 167:15:00 hrs:
  ----------------------------------------------
                     Demand      Head  Pressure
  Node                 m3/h         m         m
  ----------------------------------------------
  1                  118.15    181.60     21.60
  2                  118.15    200.06     50.06
  3                  319.01    163.76     13.76
  4                  141.78    194.30     39.30
  5                  236.30    176.22     16.22
  6                  389.90    188.74     23.74
  7                -1323.29    210.00      0.00  Reservoir
   
   
  Link Results at 167:15:00 hrs:
  ------------------------------------
                       Flow     State
  Link                 m3/h          
  ------------------------------------
  1                  219.08      open
  2                  100.93      open
  3                  986.05      open
  4                  134.92      open
  5                   83.16      open
  6                  709.36      open
  7                  319.46      open
  8                 1323.29      open
   
   
  Node Results at 167:30:00 hrs:
  ----------------------------------------------
                     Demand      Head  Pressure
  Node                 m3/h         m         m
  ----------------------------------------------
  1                  103.29    187.86     27.86
  2                  103.29    202.25     52.25
  3                  278.89    173.95     23.95
  4                  123.95    197.76     42.76
  5                  206.59    183.67     23.67
  6                  340.87    193.43     28.43
  7                -1156.88    210.00      0.00  Reservoir
   
   
  Link Results at 167:30:00 hrs:
  ------------------------------------
                       Flow     State
  Link                 m3/h          
  ------------------------------------
  1                  191.53      open
  2                   88.24      open
  3                  862.05      open
  4                  117.95      open
  5                   72.70      open
  6                  620.15      open
  7                  279.29      open
  8                 1156.88      open
   
   
  Node Results at 167:45:00 hrs:
  ----------------------------------------------
                     Demand      Head  Pressure
  Node                 m3/h         m         m
  ----------------------------------------------
  1                   84.77    194.65     34.65
  2                   84.77    204.63     54.63
  3                  228.88    185.00     35.00
  4                  101.72    201.51     46.51
  5                  169.54    191.74     31.74
  6                  279.74    198.51     33.51
  7                 -949.43    210.00      0.00  Reservoir
   
   
  Link Results at 167:45:00 hrs:
  ------------------------------------
                       Flow     State
  Link                 m3/h          
  ------------------------------------
  1                  157.19      open
  2                   72.42      open
  3                  707.47      open
  4                   96.80      open
  5                   59.66      open
  6                  508.95      open
  7                  229.20      open
  8                  949.43      open
   
   
  Node Results at 168:00:00 hrs:
  ----------------------------------------------
                     Demand      Head  Pressure
  Node                 m3/h         m         m
  ----------------------------------------------
  1                  102.70    188.09     28.09
  2                  102.70    202.33     52.33
  3                  277.29    174.33     24.33
  4                  123.24    197.89     42.89
  5                  205.40    183.94     23.94
  6                  338.91    193.60     28.60
  7                -1150.25    210.00      0.00  Reservoir
   
   
  Link Results at 168:00:00 hrs:
  ------------------------------------
                       Flow     State
  Link                 m3/h          
  ------------------------------------
  1                  190.44      open
  2                   87.74      open
  3                  857.12      open
  4                  117.27      open
  5                   72.28      open
  6                  616.60      open
  7                  277.69      open
  8                 1150.25      open
   
  Analysis ended Tue Mar  7 12:01:35 2023
