  Page 1                                    Wed Mar  1 15:52:27 2023

  ******************************************************************
  *                           E P A N E T                          *
  *                   Hydraulic and Water Quality                  *
  *                   Analysis for Pipe Networks                   *
  *                         Version 2.2                            *
  ******************************************************************
  
  Analysis begun Wed Mar  1 15:52:27 2023

   
  Node Results at 0:00:00 hrs:
  ----------------------------------------------
                     Demand      Head  Pressure
  Node                 m3/h         m         m
  ----------------------------------------------
  1                   93.18    191.71     31.71
  2                   93.18    203.60     53.60
  3                  251.57    180.21     30.21
  4                  111.81    199.89     44.89
  5                  186.35    188.24     28.24
  6                  307.48    196.31     31.31
  7                -1043.56    210.00      0.00  Reservoir
   
   
  Link Results at 0:00:00 hrs:
  ------------------------------------
                       Flow     State
  Link                 m3/h          
  ------------------------------------
  1                  172.77      open
  2                   79.60      open
  3                  777.62      open
  4                  106.40      open
  5                   65.58      open
  6                  559.41      open
  7                  251.93      open
  8                 1043.56      open
   
   
  Node Results at 0:05:00 hrs:
  ----------------------------------------------
                     Demand      Head  Pressure
  Node                 m3/h         m         m
  ----------------------------------------------
  1                   86.88    193.93     33.93
  2                   86.88    204.38     54.38
  3                  234.57    183.84     33.84
  4                  104.25    201.12     46.12
  5                  173.75    190.89     30.89
  6                  286.69    197.97     32.97
  7                 -973.02    210.00      0.00  Reservoir
   
   
  Link Results at 0:05:00 hrs:
  ------------------------------------
                       Flow     State
  Link                 m3/h          
  ------------------------------------
  1                  161.09      open
  2                   74.22      open
  3                  725.05      open
  4                   99.20      open
  5                   61.15      open
  6                  521.59      open
  7                  234.90      open
  8                  973.02      open
   
   
  Node Results at 0:10:00 hrs:
  ----------------------------------------------
                     Demand      Head  Pressure
  Node                 m3/h         m         m
  ----------------------------------------------
  1                   84.27    194.81     34.81
  2                   84.27    204.69     54.69
  3                  227.54    185.27     35.27
  4                  101.13    201.60     46.60
  5                  168.55    191.93     31.93
  6                  278.10    198.63     33.63
  7                 -943.87    210.00      0.00  Reservoir
   
   
  Link Results at 0:10:00 hrs:
  ------------------------------------
                       Flow     State
  Link                 m3/h          
  ------------------------------------
  1                  156.27      open
  2                   71.99      open
  3                  703.33      open
  4                   96.23      open
  5                   59.31      open
  6                  505.97      open
  7                  227.86      open
  8                  943.87      open
   
   
  Node Results at 0:15:00 hrs:
  ----------------------------------------------
                     Demand      Head  Pressure
  Node                 m3/h         m         m
  ----------------------------------------------
  1                   82.95    195.25     35.25
  2                   82.95    204.84     54.84
  3                  223.97    185.98     35.98
  4                   99.54    201.85     46.85
  5                  165.90    192.46     32.46
  6                  273.74    198.96     33.96
  7                 -929.07    210.00      0.00  Reservoir
   
   
  Link Results at 0:15:00 hrs:
  ------------------------------------
                       Flow     State
  Link                 m3/h          
  ------------------------------------
  1                  153.82      open
  2                   70.86      open
  3                  692.30      open
  4                   94.72      open
  5                   58.38      open
  6                  498.03      open
  7                  224.29      open
  8                  929.07      open
   
   
  Node Results at 0:20:00 hrs:
  ----------------------------------------------
                     Demand      Head  Pressure
  Node                 m3/h         m         m
  ----------------------------------------------
  1                   79.24    196.45     36.45
  2                   79.24    205.26     55.26
  3                  213.95    187.93     37.93
  4                   95.09    202.51     47.51
  5                  158.48    193.88     33.88
  6                  261.50    199.86     34.86
  7                 -887.51    210.00      0.00  Reservoir
   
   
  Link Results at 0:20:00 hrs:
  ------------------------------------
                       Flow     State
  Link                 m3/h          
  ------------------------------------
  1                  146.94      open
  2                   67.69      open
  3                  661.33      open
  4                   90.48      open
  5                   55.77      open
  6                  475.75      open
  7                  214.26      open
  8                  887.51      open
   
   
  Node Results at 0:25:00 hrs:
  ----------------------------------------------
                     Demand      Head  Pressure
  Node                 m3/h         m         m
  ----------------------------------------------
  1                   72.19    198.60     38.60
  2                   72.19    206.01     56.01
  3                  194.90    191.43     41.43
  4                   86.62    203.70     48.70
  5                  144.37    196.44     36.44
  6                  238.22    201.46     36.46
  7                 -808.49    210.00      0.00  Reservoir
   
   
  Link Results at 0:25:00 hrs:
  ------------------------------------
                       Flow     State
  Link                 m3/h          
  ------------------------------------
  1                  133.85      open
  2                   61.67      open
  3                  602.45      open
  4                   82.43      open
  5                   50.81      open
  6                  433.40      open
  7                  195.18      open
  8                  808.49      open
   
   
  Node Results at 0:30:00 hrs:
  ----------------------------------------------
                     Demand      Head  Pressure
  Node                 m3/h         m         m
  ----------------------------------------------
  1                   72.44    198.52     38.52
  2                   72.44    205.98     55.98
  3                  195.60    191.31     41.31
  4                   86.93    203.65     48.65
  5                  144.89    196.35     36.35
  6                  239.07    201.41     36.41
  7                 -811.37    210.00      0.00  Reservoir
   
   
  Link Results at 0:30:00 hrs:
  ------------------------------------
                       Flow     State
  Link                 m3/h          
  ------------------------------------
  1                  134.33      open
  2                   61.89      open
  3                  604.60      open
  4                   82.72      open
  5                   50.99      open
  6                  434.94      open
  7                  195.88      open
  8                  811.37      open
   
   
  Node Results at 0:35:00 hrs:
  ----------------------------------------------
                     Demand      Head  Pressure
  Node                 m3/h         m         m
  ----------------------------------------------
  1                   68.57    199.63     39.63
  2                   68.57    206.37     56.37
  3                  185.14    193.12     43.12
  4                   82.28    204.27     49.27
  5                  137.14    197.67     37.67
  6                  226.28    202.24     37.24
  7                 -767.98    210.00      0.00  Reservoir
   
   
  Link Results at 0:35:00 hrs:
  ------------------------------------
                       Flow     State
  Link                 m3/h          
  ------------------------------------
  1                  127.15      open
  2                   58.58      open
  3                  572.26      open
  4                   78.30      open
  5                   48.26      open
  6                  411.68      open
  7                  185.40      open
  8                  767.98      open
   
   
  Node Results at 0:40:00 hrs:
  ----------------------------------------------
                     Demand      Head  Pressure
  Node                 m3/h         m         m
  ----------------------------------------------
  1                   66.53    200.20     40.20
  2                   66.53    206.57     56.57
  3                  179.63    194.04     44.04
  4                   79.83    204.58     49.58
  5                  133.06    198.34     38.34
  6                  219.54    202.66     37.66
  7                 -745.12    210.00      0.00  Reservoir
   
   
  Link Results at 0:40:00 hrs:
  ------------------------------------
                       Flow     State
  Link                 m3/h          
  ------------------------------------
  1                  123.36      open
  2                   56.83      open
  3                  555.23      open
  4                   75.97      open
  5                   46.82      open
  6                  399.43      open
  7                  179.88      open
  8                  745.12      open
   
   
  Node Results at 0:45:00 hrs:
  ----------------------------------------------
                     Demand      Head  Pressure
  Node                 m3/h         m         m
  ----------------------------------------------
  1                   65.28    200.54     40.54
  2                   65.28    206.69     56.69
  3                  176.25    194.59     44.59
  4                   78.33    204.77     49.77
  5                  130.55    198.74     38.74
  6                  215.42    202.92     37.92
  7                 -731.11    210.00      0.00  Reservoir
   
   
  Link Results at 0:45:00 hrs:
  ------------------------------------
                       Flow     State
  Link                 m3/h          
  ------------------------------------
  1                  121.04      open
  2                   55.77      open
  3                  544.79      open
  4                   74.54      open
  5                   45.94      open
  6                  391.91      open
  7                  176.50      open
  8                  731.11      open
   
   
  Node Results at 0:50:00 hrs:
  ----------------------------------------------
                     Demand      Head  Pressure
  Node                 m3/h         m         m
  ----------------------------------------------
  1                   63.18    201.09     41.09
  2                   63.18    206.88     56.88
  3                  170.60    195.49     45.49
  4                   75.82    205.07     50.07
  5                  126.37    199.40     39.40
  6                  208.51    203.33     38.33
  7                 -707.67    210.00      0.00  Reservoir
   
   
  Link Results at 0:50:00 hrs:
  ------------------------------------
                       Flow     State
  Link                 m3/h          
  ------------------------------------
  1                  117.16      open
  2                   53.98      open
  3                  527.32      open
  4                   72.15      open
  5                   44.47      open
  6                  379.35      open
  7                  170.84      open
  8                  707.67      open
   
   
  Node Results at 0:55:00 hrs:
  ----------------------------------------------
                     Demand      Head  Pressure
  Node                 m3/h         m         m
  ----------------------------------------------
  1                   63.21    201.08     41.08
  2                   63.21    206.88     56.88
  3                  170.67    195.48     45.48
  4                   75.85    205.07     50.07
  5                  126.42    199.39     39.39
  6                  208.60    203.32     38.33
  7                 -707.98    210.00      0.00  Reservoir
   
   
  Link Results at 0:55:00 hrs:
  ------------------------------------
                       Flow     State
  Link                 m3/h          
  ------------------------------------
  1                  117.21      open
  2                   54.00      open
  3                  527.55      open
  4                   72.18      open
  5                   44.49      open
  6                  379.52      open
  7                  170.92      open
  8                  707.98      open
   
   
  Node Results at 1:00:00 hrs:
  ----------------------------------------------
                     Demand      Head  Pressure
  Node                 m3/h         m         m
  ----------------------------------------------
  1                   60.91    201.67     41.67
  2                   60.91    207.09     57.09
  3                  164.47    196.44     46.44
  4                   73.10    205.40     50.40
  5                  121.83    200.10     40.10
  6                  201.01    203.77     38.77
  7                 -682.23    210.00      0.00  Reservoir
   
   
  Link Results at 1:00:00 hrs:
  ------------------------------------
                       Flow     State
  Link                 m3/h          
  ------------------------------------
  1                  112.95      open
  2                   52.04      open
  3                  508.37      open
  4                   69.56      open
  5                   42.87      open
  6                  365.71      open
  7                  164.70      open
  8                  682.23      open
   
   
  Node Results at 1:05:00 hrs:
  ----------------------------------------------
                     Demand      Head  Pressure
  Node                 m3/h         m         m
  ----------------------------------------------
  1                   58.86    202.19     42.19
  2                   58.86    207.27     57.27
  3                  158.91    197.28     47.28
  4                   70.63    205.68     50.68
  5                  117.71    200.71     40.71
  6                  194.23    204.15     39.15
  7                 -659.19    210.00      0.00  Reservoir
   
   
  Link Results at 1:05:00 hrs:
  ------------------------------------
                       Flow     State
  Link                 m3/h          
  ------------------------------------
  1                  109.14      open
  2                   50.28      open
  3                  491.20      open
  4                   67.21      open
  5                   41.42      open
  6                  353.36      open
  7                  159.14      open
  8                  659.19      open
   
   
  Node Results at 1:10:00 hrs:
  ----------------------------------------------
                     Demand      Head  Pressure
  Node                 m3/h         m         m
  ----------------------------------------------
  1                   58.06    202.38     42.38
  2                   58.06    207.33     57.33
  3                  156.77    197.59     47.59
  4                   69.68    205.79     50.79
  5                  116.13    200.94     40.94
  6                  191.61    204.30     39.30
  7                 -650.31    210.00      0.00  Reservoir
   
   
  Link Results at 1:10:00 hrs:
  ------------------------------------
                       Flow     State
  Link                 m3/h          
  ------------------------------------
  1                  107.67      open
  2                   49.60      open
  3                  484.58      open
  4                   66.30      open
  5                   40.87      open
  6                  348.60      open
  7                  156.99      open
  8                  650.31      open
   
   
  Node Results at 1:15:00 hrs:
  ----------------------------------------------
                     Demand      Head  Pressure
  Node                 m3/h         m         m
  ----------------------------------------------
  1                   56.88    202.67     42.67
  2                   56.88    207.43     57.43
  3                  153.58    198.06     48.06
  4                   68.26    205.95     50.95
  5                  113.76    201.28     41.28
  6                  187.71    204.51     39.51
  7                 -637.07    210.00      0.00  Reservoir
   
   
  Link Results at 1:15:00 hrs:
  ------------------------------------
                       Flow     State
  Link                 m3/h          
  ------------------------------------
  1                  105.47      open
  2                   48.59      open
  3                  474.72      open
  4                   64.95      open
  5                   40.03      open
  6                  341.51      open
  7                  153.80      open
  8                  637.07      open
   
   
  Node Results at 1:20:00 hrs:
  ----------------------------------------------
                     Demand      Head  Pressure
  Node                 m3/h         m         m
  ----------------------------------------------
  1                   57.22    202.59     42.59
  2                   57.22    207.41     57.41
  3                  154.48    197.93     47.93
  4                   68.66    205.90     50.90
  5                  114.43    201.18     41.18
  6                  188.81    204.45     39.45
  7                 -640.82    210.00      0.00  Reservoir
   
   
  Link Results at 1:20:00 hrs:
  ------------------------------------
                       Flow     State
  Link                 m3/h          
  ------------------------------------
  1                  106.09      open
  2                   48.88      open
  3                  477.51      open
  4                   65.33      open
  5                   40.27      open
  6                  343.52      open
  7                  154.70      open
  8                  640.82      open
   
   
  Node Results at 1:25:00 hrs:
  ----------------------------------------------
                     Demand      Head  Pressure
  Node                 m3/h         m         m
  ----------------------------------------------
  1                   54.47    203.23     43.23
  2                   54.47    207.63     57.63
  3                  147.07    198.98     48.98
  4                   65.36    206.26     51.26
  5                  108.94    201.95     41.95
  6                  179.75    204.93     39.93
  7                 -610.07    210.00      0.00  Reservoir
   
   
  Link Results at 1:25:00 hrs:
  ------------------------------------
                       Flow     State
  Link                 m3/h          
  ------------------------------------
  1                  101.00      open
  2                   46.53      open
  3                  454.59      open
  4                   62.20      open
  5                   38.34      open
  6                  327.03      open
  7                  147.28      open
  8                  610.07      open
   
   
  Node Results at 1:30:00 hrs:
  ----------------------------------------------
                     Demand      Head  Pressure
  Node                 m3/h         m         m
  ----------------------------------------------
  1                   54.24    203.28     43.28
  2                   54.24    207.65     57.65
  3                  146.46    199.06     49.06
  4                   65.09    206.29     51.29
  5                  108.49    202.01     42.01
  6                  179.01    204.97     39.97
  7                 -607.54    210.00      0.00  Reservoir
   
   
  Link Results at 1:30:00 hrs:
  ------------------------------------
                       Flow     State
  Link                 m3/h          
  ------------------------------------
  1                  100.58      open
  2                   46.34      open
  3                  452.71      open
  4                   61.94      open
  5                   38.18      open
  6                  325.67      open
  7                  146.67      open
  8                  607.54      open
   
   
  Node Results at 1:35:00 hrs:
  ----------------------------------------------
                     Demand      Head  Pressure
  Node                 m3/h         m         m
  ----------------------------------------------
  1                   52.27    203.73     43.73
  2                   52.27    207.81     57.81
  3                  141.13    199.79     49.79
  4                   62.73    206.53     51.53
  5                  104.54    202.54     42.54
  6                  172.50    205.31     40.31
  7                 -585.44    210.00      0.00  Reservoir
   
   
  Link Results at 1:35:00 hrs:
  ------------------------------------
                       Flow     State
  Link                 m3/h          
  ------------------------------------
  1                   96.93      open
  2                   44.65      open
  3                  436.24      open
  4                   59.69      open
  5                   36.79      open
  6                  313.83      open
  7                  141.33      open
  8                  585.44      open
   
   
  Node Results at 1:40:00 hrs:
  ----------------------------------------------
                     Demand      Head  Pressure
  Node                 m3/h         m         m
  ----------------------------------------------
  1                   49.82    204.26     44.26
  2                   49.82    207.99     57.99
  3                  134.51    200.66     50.66
  4                   59.78    206.83     51.83
  5                   99.64    203.18     43.18
  6                  164.41    205.71     40.71
  7                 -557.98    210.00      0.00  Reservoir
   
   
  Link Results at 1:40:00 hrs:
  ------------------------------------
                       Flow     State
  Link                 m3/h          
  ------------------------------------
  1                   92.38      open
  2                   42.56      open
  3                  415.78      open
  4                   56.89      open
  5                   35.06      open
  6                  299.11      open
  7                  134.70      open
  8                  557.98      open
   
   
  Node Results at 1:45:00 hrs:
  ----------------------------------------------
                     Demand      Head  Pressure
  Node                 m3/h         m         m
  ----------------------------------------------
  1                   52.53    203.67     43.67
  2                   52.53    207.79     57.79
  3                  141.84    199.69     49.69
  4                   63.04    206.50     51.50
  5                  105.07    202.47     42.47
  6                  173.36    205.26     40.26
  7                 -588.38    210.00      0.00  Reservoir
   
   
  Link Results at 1:45:00 hrs:
  ------------------------------------
                       Flow     State
  Link                 m3/h          
  ------------------------------------
  1                   97.41      open
  2                   44.88      open
  3                  438.43      open
  4                   59.99      open
  5                   36.97      open
  6                  315.40      open
  7                  142.04      open
  8                  588.38      open
   
   
  Node Results at 1:50:00 hrs:
  ----------------------------------------------
                     Demand      Head  Pressure
  Node                 m3/h         m         m
  ----------------------------------------------
  1                   52.12    203.76     43.76
  2                   52.12    207.82     57.82
  3                  140.72    199.84     49.84
  4                   62.54    206.55     51.55
  5                  104.24    202.58     42.58
  6                  171.99    205.33     40.33
  7                 -583.73    210.00      0.00  Reservoir
   
   
  Link Results at 1:50:00 hrs:
  ------------------------------------
                       Flow     State
  Link                 m3/h          
  ------------------------------------
  1                   96.64      open
  2                   44.52      open
  3                  434.97      open
  4                   59.51      open
  5                   36.68      open
  6                  312.91      open
  7                  140.92      open
  8                  583.73      open
   
   
  Node Results at 1:55:00 hrs:
  ----------------------------------------------
                     Demand      Head  Pressure
  Node                 m3/h         m         m
  ----------------------------------------------
  1                   49.87    204.25     44.25
  2                   49.87    207.99     57.99
  3                  134.64    200.64     50.64
  4                   59.84    206.82     51.82
  5                   99.73    203.16     43.16
  6                  164.56    205.70     40.70
  7                 -558.52    210.00      0.00  Reservoir
   
   
  Link Results at 1:55:00 hrs:
  ------------------------------------
                       Flow     State
  Link                 m3/h          
  ------------------------------------
  1                   92.47      open
  2                   42.60      open
  3                  416.18      open
  4                   56.94      open
  5                   35.10      open
  6                  299.40      open
  7                  134.83      open
  8                  558.52      open
   
   
  Node Results at 2:00:00 hrs:
  ----------------------------------------------
                     Demand      Head  Pressure
  Node                 m3/h         m         m
  ----------------------------------------------
  1                   52.27    203.73     43.73
  2                   52.27    207.81     57.81
  3                  141.13    199.79     49.79
  4                   62.72    206.53     51.53
  5                  104.54    202.54     42.54
  6                  172.49    205.31     40.31
  7                 -585.42    210.00      0.00  Reservoir
   
   
  Link Results at 2:00:00 hrs:
  ------------------------------------
                       Flow     State
  Link                 m3/h          
  ------------------------------------
  1                   96.92      open
  2                   44.65      open
  3                  436.23      open
  4                   59.69      open
  5                   36.79      open
  6                  313.82      open
  7                  141.33      open
  8                  585.42      open
   
   
  Node Results at 2:05:00 hrs:
  ----------------------------------------------
                     Demand      Head  Pressure
  Node                 m3/h         m         m
  ----------------------------------------------
  1                   47.93    204.66     44.66
  2                   47.93    208.13     58.13
  3                  129.41    201.30     51.30
  4                   57.52    207.05     52.05
  5                   95.86    203.65     43.65
  6                  158.17    206.00     41.00
  7                 -536.81    210.00      0.00  Reservoir
   
   
  Link Results at 2:05:00 hrs:
  ------------------------------------
                       Flow     State
  Link                 m3/h          
  ------------------------------------
  1                   88.87      open
  2                   40.95      open
  3                  400.01      open
  4                   54.73      open
  5                   33.73      open
  6                  287.76      open
  7                  129.59      open
  8                  536.81      open
   
   
  Node Results at 2:10:00 hrs:
  ----------------------------------------------
                     Demand      Head  Pressure
  Node                 m3/h         m         m
  ----------------------------------------------
  1                   48.75    204.49     44.49
  2                   48.75    208.07     58.07
  3                  131.63    201.02     51.02
  4                   58.50    206.95     51.95
  5                   97.51    203.44     43.44
  6                  160.89    205.87     40.87
  7                 -546.04    210.00      0.00  Reservoir
   
   
  Link Results at 2:10:00 hrs:
  ------------------------------------
                       Flow     State
  Link                 m3/h          
  ------------------------------------
  1                   90.40      open
  2                   41.65      open
  3                  406.88      open
  4                   55.67      open
  5                   34.31      open
  6                  292.71      open
  7                  131.82      open
  8                  546.04      open
   
   
  Node Results at 2:15:00 hrs:
  ----------------------------------------------
                     Demand      Head  Pressure
  Node                 m3/h         m         m
  ----------------------------------------------
  1                   47.85    204.68     44.68
  2                   47.85    208.14     58.14
  3                  129.19    201.33     51.33
  4                   57.42    207.06     52.06
  5                   95.69    203.67     43.67
  6                  157.89    206.01     41.01
  7                 -535.88    210.00      0.00  Reservoir
   
   
  Link Results at 2:15:00 hrs:
  ------------------------------------
                       Flow     State
  Link                 m3/h          
  ------------------------------------
  1                   88.72      open
  2                   40.87      open
  3                  399.32      open
  4                   54.64      open
  5                   33.68      open
  6                  287.26      open
  7                  129.37      open
  8                  535.88      open
   
   
  Node Results at 2:20:00 hrs:
  ----------------------------------------------
                     Demand      Head  Pressure
  Node                 m3/h         m         m
  ----------------------------------------------
  1                   48.76    204.49     44.49
  2                   48.76    208.07     58.07
  3                  131.66    201.02     51.02
  4                   58.52    206.95     51.95
  5                   97.53    203.44     43.44
  6                  160.92    205.87     40.87
  7                 -546.16    210.00      0.00  Reservoir
   
   
  Link Results at 2:20:00 hrs:
  ------------------------------------
                       Flow     State
  Link                 m3/h          
  ------------------------------------
  1                   90.42      open
  2                   41.66      open
  3                  406.97      open
  4                   55.68      open
  5                   34.32      open
  6                  292.77      open
  7                  131.85      open
  8                  546.16      open
   
   
  Node Results at 2:25:00 hrs:
  ----------------------------------------------
                     Demand      Head  Pressure
  Node                 m3/h         m         m
  ----------------------------------------------
  1                   47.93    204.66     44.66
  2                   47.93    208.13     58.13
  3                  129.42    201.30     51.30
  4                   57.52    207.05     52.05
  5                   95.87    203.65     43.65
  6                  158.18    206.00     41.00
  7                 -536.87    210.00      0.00  Reservoir
   
   
  Link Results at 2:25:00 hrs:
  ------------------------------------
                       Flow     State
  Link                 m3/h          
  ------------------------------------
  1                   88.88      open
  2                   40.95      open
  3                  400.05      open
  4                   54.74      open
  5                   33.74      open
  6                  287.79      open
  7                  129.61      open
  8                  536.87      open
   
   
  Node Results at 2:30:00 hrs:
  ----------------------------------------------
                     Demand      Head  Pressure
  Node                 m3/h         m         m
  ----------------------------------------------
  1                   45.92    205.07     45.07
  2                   45.92    208.27     58.27
  3                  123.99    201.97     51.97
  4                   55.11    207.27     52.27
  5                   91.84    204.13     44.13
  6                  151.54    206.31     41.31
  7                 -514.32    210.00      0.00  Reservoir
   
   
  Link Results at 2:30:00 hrs:
  ------------------------------------
                       Flow     State
  Link                 m3/h          
  ------------------------------------
  1                   85.15      open
  2                   39.23      open
  3                  383.25      open
  4                   52.44      open
  5                   32.32      open
  6                  275.70      open
  7                  124.16      open
  8                  514.32      open
   
   
  Node Results at 2:35:00 hrs:
  ----------------------------------------------
                     Demand      Head  Pressure
  Node                 m3/h         m         m
  ----------------------------------------------
  1                   45.29    205.19     45.19
  2                   45.29    208.32     58.32
  3                  122.28    202.17     52.17
  4                   54.35    207.34     52.34
  5                   90.58    204.28     44.28
  6                  149.46    206.40     41.40
  7                 -507.25    210.00      0.00  Reservoir
   
   
  Link Results at 2:35:00 hrs:
  ------------------------------------
                       Flow     State
  Link                 m3/h          
  ------------------------------------
  1                   83.98      open
  2                   38.69      open
  3                  377.98      open
  4                   51.72      open
  5                   31.88      open
  6                  271.91      open
  7                  122.46      open
  8                  507.25      open
   
   
  Node Results at 2:40:00 hrs:
  ----------------------------------------------
                     Demand      Head  Pressure
  Node                 m3/h         m         m
  ----------------------------------------------
  1                   43.29    205.58     45.58
  2                   43.29    208.45     58.45
  3                  116.88    202.80     52.80
  4                   51.95    207.55     52.55
  5                   86.58    204.74     44.74
  6                  142.86    206.69     41.69
  7                 -484.85    210.00      0.00  Reservoir
   
   
  Link Results at 2:40:00 hrs:
  ------------------------------------
                       Flow     State
  Link                 m3/h          
  ------------------------------------
  1                   80.27      open
  2                   36.98      open
  3                  361.28      open
  4                   49.43      open
  5                   30.47      open
  6                  259.90      open
  7                  117.05      open
  8                  484.85      open
   
   
  Node Results at 2:45:00 hrs:
  ----------------------------------------------
                     Demand      Head  Pressure
  Node                 m3/h         m         m
  ----------------------------------------------
  1                   41.43    205.92     45.92
  2                   41.43    208.57     58.57
  3                  111.87    203.36     53.36
  4                   49.72    207.75     52.75
  5                   82.87    205.15     45.15
  6                  136.73    206.95     41.95
  7                 -464.06    210.00      0.00  Reservoir
   
   
  Link Results at 2:45:00 hrs:
  ------------------------------------
                       Flow     State
  Link                 m3/h          
  ------------------------------------
  1                   76.83      open
  2                   35.40      open
  3                  345.79      open
  4                   47.31      open
  5                   29.16      open
  6                  248.76      open
  7                  112.03      open
  8                  464.06      open
   
   
  Node Results at 2:50:00 hrs:
  ----------------------------------------------
                     Demand      Head  Pressure
  Node                 m3/h         m         m
  ----------------------------------------------
  1                   41.86    205.84     45.84
  2                   41.86    208.55     58.55
  3                  113.03    203.23     53.23
  4                   50.24    207.70     52.70
  5                   83.73    205.06     45.06
  6                  138.15    206.89     41.89
  7                 -468.88    210.00      0.00  Reservoir
   
   
  Link Results at 2:50:00 hrs:
  ------------------------------------
                       Flow     State
  Link                 m3/h          
  ------------------------------------
  1                   77.63      open
  2                   35.76      open
  3                  349.39      open
  4                   47.80      open
  5                   29.47      open
  6                  251.34      open
  7                  113.19      open
  8                  468.88      open
   
   
  Node Results at 2:55:00 hrs:
  ----------------------------------------------
                     Demand      Head  Pressure
  Node                 m3/h         m         m
  ----------------------------------------------
  1                   41.24    205.96     45.96
  2                   41.24    208.59     58.59
  3                  111.35    203.42     53.42
  4                   49.49    207.76     52.76
  5                   82.48    205.19     45.19
  6                  136.09    206.97     41.97
  7                 -461.88    210.00      0.00  Reservoir
   
   
  Link Results at 2:55:00 hrs:
  ------------------------------------
                       Flow     State
  Link                 m3/h          
  ------------------------------------
  1                   76.47      open
  2                   35.23      open
  3                  344.17      open
  4                   47.09      open
  5                   29.03      open
  6                  247.60      open
  7                  111.50      open
  8                  461.88      open
   
   
  Node Results at 3:00:00 hrs:
  ----------------------------------------------
                     Demand      Head  Pressure
  Node                 m3/h         m         m
  ----------------------------------------------
  1                   40.98    206.00     46.00
  2                   40.98    208.60     58.60
  3                  110.66    203.49     53.49
  4                   49.18    207.79     52.79
  5                   81.97    205.25     45.25
  6                  135.25    207.01     42.01
  7                 -459.02    210.00      0.00  Reservoir
   
   
  Link Results at 3:00:00 hrs:
  ------------------------------------
                       Flow     State
  Link                 m3/h          
  ------------------------------------
  1                   76.00      open
  2                   35.01      open
  3                  342.04      open
  4                   46.80      open
  5                   28.85      open
  6                  246.06      open
  7                  110.81      open
  8                  459.02      open
   
   
  Node Results at 3:05:00 hrs:
  ----------------------------------------------
                     Demand      Head  Pressure
  Node                 m3/h         m         m
  ----------------------------------------------
  1                   39.76    206.22     46.22
  2                   39.76    208.68     58.68
  3                  107.35    203.85     53.85
  4                   47.71    207.91     52.91
  5                   79.52    205.51     45.51
  6                  131.21    207.17     42.17
  7                 -445.30    210.00      0.00  Reservoir
   
   
  Link Results at 3:05:00 hrs:
  ------------------------------------
                       Flow     State
  Link                 m3/h          
  ------------------------------------
  1                   73.72      open
  2                   33.97      open
  3                  331.82      open
  4                   45.40      open
  5                   27.98      open
  6                  238.71      open
  7                  107.50      open
  8                  445.30      open
   
   
  Node Results at 3:10:00 hrs:
  ----------------------------------------------
                     Demand      Head  Pressure
  Node                 m3/h         m         m
  ----------------------------------------------
  1                   37.32    206.64     46.64
  2                   37.32    208.82     58.82
  3                  100.77    204.53     54.53
  4                   44.79    208.14     53.14
  5                   74.64    206.00     46.00
  6                  123.16    207.48     42.48
  7                 -417.99    210.00      0.00  Reservoir
   
   
  Link Results at 3:10:00 hrs:
  ------------------------------------
                       Flow     State
  Link                 m3/h          
  ------------------------------------
  1                   69.20      open
  2                   31.88      open
  3                  311.47      open
  4                   42.62      open
  5                   26.27      open
  6                  224.07      open
  7                  100.91      open
  8                  417.99      open
   
   
  Node Results at 3:15:00 hrs:
  ----------------------------------------------
                     Demand      Head  Pressure
  Node                 m3/h         m         m
  ----------------------------------------------
  1                   36.17    206.83     46.83
  2                   36.17    208.89     58.89
  3                   97.66    204.84     54.84
  4                   43.40    208.25     53.25
  5                   72.34    206.23     46.23
  6                  119.36    207.63     42.63
  7                 -405.11    210.00      0.00  Reservoir
   
   
  Link Results at 3:15:00 hrs:
  ------------------------------------
                       Flow     State
  Link                 m3/h          
  ------------------------------------
  1                   67.07      open
  2                   30.90      open
  3                  301.87      open
  4                   41.30      open
  5                   25.46      open
  6                  217.16      open
  7                   97.80      open
  8                  405.11      open
   
   
  Node Results at 3:20:00 hrs:
  ----------------------------------------------
                     Demand      Head  Pressure
  Node                 m3/h         m         m
  ----------------------------------------------
  1                   34.45    207.10     47.10
  2                   34.45    208.99     58.99
  3                   93.02    205.28     55.28
  4                   41.34    208.40     53.40
  5                   68.90    206.55     46.55
  6                  113.69    207.83     42.83
  7                 -385.86    210.00      0.00  Reservoir
   
   
  Link Results at 3:20:00 hrs:
  ------------------------------------
                       Flow     State
  Link                 m3/h          
  ------------------------------------
  1                   63.88      open
  2                   29.43      open
  3                  287.53      open
  4                   39.34      open
  5                   24.25      open
  6                  206.84      open
  7                   93.15      open
  8                  385.86      open
   
   
  Node Results at 3:25:00 hrs:
  ----------------------------------------------
                     Demand      Head  Pressure
  Node                 m3/h         m         m
  ----------------------------------------------
  1                   33.07    207.31     47.31
  2                   33.07    209.06     59.06
  3                   89.30    205.63     55.63
  4                   39.69    208.51     53.51
  5                   66.15    206.80     46.80
  6                  109.15    207.99     42.99
  7                 -370.44    210.00      0.00  Reservoir
   
   
  Link Results at 3:25:00 hrs:
  ------------------------------------
                       Flow     State
  Link                 m3/h          
  ------------------------------------
  1                   61.33      open
  2                   28.25      open
  3                  276.03      open
  4                   37.77      open
  5                   23.28      open
  6                  198.57      open
  7                   89.43      open
  8                  370.44      open
   
   
  Node Results at 3:30:00 hrs:
  ----------------------------------------------
                     Demand      Head  Pressure
  Node                 m3/h         m         m
  ----------------------------------------------
  1                   31.85    207.49     47.49
  2                   31.85    209.12     59.12
  3                   85.99    205.92     55.92
  4                   38.22    208.61     53.61
  5                   63.70    207.02     47.02
  6                  105.10    208.12     43.12
  7                 -356.72    210.00      0.00  Reservoir
   
   
  Link Results at 3:30:00 hrs:
  ------------------------------------
                       Flow     State
  Link                 m3/h          
  ------------------------------------
  1                   59.06      open
  2                   27.21      open
  3                  265.81      open
  4                   36.37      open
  5                   22.42      open
  6                  191.22      open
  7                   86.12      open
  8                  356.72      open
   
   
  Node Results at 3:35:00 hrs:
  ----------------------------------------------
                     Demand      Head  Pressure
  Node                 m3/h         m         m
  ----------------------------------------------
  1                   33.27    207.28     47.28
  2                   33.27    209.05     59.05
  3                   89.83    205.58     55.58
  4                   39.93    208.50     53.50
  5                   66.54    206.77     46.77
  6                  109.79    207.97     42.97
  7                 -372.63    210.00      0.00  Reservoir
   
   
  Link Results at 3:35:00 hrs:
  ------------------------------------
                       Flow     State
  Link                 m3/h          
  ------------------------------------
  1                   61.69      open
  2                   28.42      open
  3                  277.67      open
  4                   37.99      open
  5                   23.42      open
  6                  199.75      open
  7                   89.96      open
  8                  372.63      open
   
   
  Node Results at 3:40:00 hrs:
  ----------------------------------------------
                     Demand      Head  Pressure
  Node                 m3/h         m         m
  ----------------------------------------------
  1                   30.89    207.63     47.63
  2                   30.89    209.17     59.17
  3                   83.41    206.14     56.14
  4                   37.07    208.69     53.69
  5                   61.78    207.18     47.18
  6                  101.94    208.23     43.23
  7                 -345.99    210.00      0.00  Reservoir
   
   
  Link Results at 3:40:00 hrs:
  ------------------------------------
                       Flow     State
  Link                 m3/h          
  ------------------------------------
  1                   57.28      open
  2                   26.39      open
  3                  257.82      open
  4                   35.28      open
  5                   21.74      open
  6                  185.47      open
  7                   83.53      open
  8                  345.99      open
   
   
  Node Results at 3:45:00 hrs:
  ----------------------------------------------
                     Demand      Head  Pressure
  Node                 m3/h         m         m
  ----------------------------------------------
  1                   30.30    207.72     47.72
  2                   30.30    209.20     59.20
  3                   81.82    206.28     56.28
  4                   36.37    208.74     53.74
  5                   60.61    207.28     47.28
  6                  100.01    208.29     43.29
  7                 -339.41    210.00      0.00  Reservoir
   
   
  Link Results at 3:45:00 hrs:
  ------------------------------------
                       Flow     State
  Link                 m3/h          
  ------------------------------------
  1                   56.19      open
  2                   25.89      open
  3                  252.92      open
  4                   34.60      open
  5                   21.33      open
  6                  181.94      open
  7                   81.94      open
  8                  339.41      open
   
   
  Node Results at 3:50:00 hrs:
  ----------------------------------------------
                     Demand      Head  Pressure
  Node                 m3/h         m         m
  ----------------------------------------------
  1                   29.38    207.84     47.84
  2                   29.38    209.24     59.24
  3                   79.33    206.49     56.49
  4                   35.26    208.81     53.81
  5                   58.77    207.43     47.43
  6                   96.96    208.38     43.38
  7                 -329.09    210.00      0.00  Reservoir
   
   
  Link Results at 3:50:00 hrs:
  ------------------------------------
                       Flow     State
  Link                 m3/h          
  ------------------------------------
  1                   54.48      open
  2                   25.10      open
  3                  245.22      open
  4                   33.55      open
  5                   20.68      open
  6                  176.41      open
  7                   79.45      open
  8                  329.09      open
   
   
  Node Results at 3:55:00 hrs:
  ----------------------------------------------
                     Demand      Head  Pressure
  Node                 m3/h         m         m
  ----------------------------------------------
  1                   30.40    207.70     47.70
  2                   30.40    209.20     59.20
  3                   82.09    206.26     56.26
  4                   36.48    208.73     53.73
  5                   60.81    207.27     47.27
  6                  100.33    208.28     43.28
  7                 -340.51    210.00      0.00  Reservoir
   
   
  Link Results at 3:55:00 hrs:
  ------------------------------------
                       Flow     State
  Link                 m3/h          
  ------------------------------------
  1                   56.37      open
  2                   25.97      open
  3                  253.73      open
  4                   34.72      open
  5                   21.40      open
  6                  182.53      open
  7                   82.20      open
  8                  340.51      open
   
   
  Node Results at 4:00:00 hrs:
  ----------------------------------------------
                     Demand      Head  Pressure
  Node                 m3/h         m         m
  ----------------------------------------------
  1                   29.03    207.89     47.89
  2                   29.03    209.26     59.26
  3                   78.39    206.56     56.56
  4                   34.84    208.83     53.83
  5                   58.06    207.49     47.49
  6                   95.80    208.42     43.42
  7                 -325.16    210.00      0.00  Reservoir
   
   
  Link Results at 4:00:00 hrs:
  ------------------------------------
                       Flow     State
  Link                 m3/h          
  ------------------------------------
  1                   53.83      open
  2                   24.80      open
  3                  242.29      open
  4                   33.15      open
  5                   20.43      open
  6                  174.30      open
  7                   78.50      open
  8                  325.16      open
   
   
  Node Results at 4:05:00 hrs:
  ----------------------------------------------
                     Demand      Head  Pressure
  Node                 m3/h         m         m
  ----------------------------------------------
  1                   30.22    207.73     47.73
  2                   30.22    209.20     59.20
  3                   81.58    206.30     56.30
  4                   36.26    208.74     53.74
  5                   60.43    207.30     47.30
  6                   99.71    208.30     43.30
  7                 -338.41    210.00      0.00  Reservoir
   
   
  Link Results at 4:05:00 hrs:
  ------------------------------------
                       Flow     State
  Link                 m3/h          
  ------------------------------------
  1                   56.03      open
  2                   25.81      open
  3                  252.17      open
  4                   34.50      open
  5                   21.27      open
  6                  181.41      open
  7                   81.70      open
  8                  338.41      open
   
   
  Node Results at 4:10:00 hrs:
  ----------------------------------------------
                     Demand      Head  Pressure
  Node                 m3/h         m         m
  ----------------------------------------------
  1                   30.38    207.70     47.70
  2                   30.38    209.20     59.20
  3                   82.03    206.26     56.26
  4                   36.46    208.73     53.73
  5                   60.76    207.27     47.27
  6                  100.26    208.28     43.28
  7                 -340.27    210.00      0.00  Reservoir
   
   
  Link Results at 4:10:00 hrs:
  ------------------------------------
                       Flow     State
  Link                 m3/h          
  ------------------------------------
  1                   56.34      open
  2                   25.95      open
  3                  253.55      open
  4                   34.69      open
  5                   21.38      open
  6                  182.40      open
  7                   82.15      open
  8                  340.27      open
   
   
  Node Results at 4:15:00 hrs:
  ----------------------------------------------
                     Demand      Head  Pressure
  Node                 m3/h         m         m
  ----------------------------------------------
  1                   31.97    207.48     47.48
  2                   31.97    209.12     59.12
  3                   86.32    205.89     55.89
  4                   38.37    208.61     53.61
  5                   63.94    207.00     47.00
  6                  105.51    208.11     43.11
  7                 -358.08    210.00      0.00  Reservoir
   
   
  Link Results at 4:15:00 hrs:
  ------------------------------------
                       Flow     State
  Link                 m3/h          
  ------------------------------------
  1                   59.28      open
  2                   27.31      open
  3                  266.82      open
  4                   36.51      open
  5                   22.50      open
  6                  191.95      open
  7                   86.44      open
  8                  358.08      open
   
   
  Node Results at 4:20:00 hrs:
  ----------------------------------------------
                     Demand      Head  Pressure
  Node                 m3/h         m         m
  ----------------------------------------------
  1                   32.33    207.42     47.42
  2                   32.33    209.10     59.10
  3                   87.30    205.80     55.80
  4                   38.80    208.58     53.58
  5                   64.67    206.94     46.94
  6                  106.70    208.07     43.07
  7                 -362.15    210.00      0.00  Reservoir
   
   
  Link Results at 4:20:00 hrs:
  ------------------------------------
                       Flow     State
  Link                 m3/h          
  ------------------------------------
  1                   59.96      open
  2                   27.62      open
  3                  269.86      open
  4                   36.92      open
  5                   22.76      open
  6                  194.13      open
  7                   87.43      open
  8                  362.15      open
   
   
  Node Results at 4:25:00 hrs:
  ----------------------------------------------
                     Demand      Head  Pressure
  Node                 m3/h         m         m
  ----------------------------------------------
  1                   32.92    207.34     47.34
  2                   32.92    209.07     59.07
  3                   88.88    205.66     55.66
  4                   39.50    208.53     53.53
  5                   65.84    206.83     46.83
  6                  108.63    208.01     43.01
  7                 -368.70    210.00      0.00  Reservoir
   
   
  Link Results at 4:25:00 hrs:
  ------------------------------------
                       Flow     State
  Link                 m3/h          
  ------------------------------------
  1                   61.04      open
  2                   28.12      open
  3                  274.74      open
  4                   37.59      open
  5                   23.17      open
  6                  197.64      open
  7                   89.01      open
  8                  368.70      open
   
   
  Node Results at 4:30:00 hrs:
  ----------------------------------------------
                     Demand      Head  Pressure
  Node                 m3/h         m         m
  ----------------------------------------------
  1                   34.80    207.05     47.05
  2                   34.80    208.97     58.97
  3                   93.96    205.19     55.19
  4                   41.76    208.37     53.37
  5                   69.60    206.49     46.49
  6                  114.84    207.79     42.79
  7                 -389.77    210.00      0.00  Reservoir
   
   
  Link Results at 4:30:00 hrs:
  ------------------------------------
                       Flow     State
  Link                 m3/h          
  ------------------------------------
  1                   64.53      open
  2                   29.73      open
  3                  290.44      open
  4                   39.74      open
  5                   24.49      open
  6                  208.94      open
  7                   94.10      open
  8                  389.77      open
   
   
  Node Results at 4:35:00 hrs:
  ----------------------------------------------
                     Demand      Head  Pressure
  Node                 m3/h         m         m
  ----------------------------------------------
  1                   36.24    206.82     46.82
  2                   36.24    208.89     58.89
  3                   97.86    204.82     54.82
  4                   43.49    208.24     53.24
  5                   72.49    206.21     46.21
  6                  119.60    207.62     42.62
  7                 -405.92    210.00      0.00  Reservoir
   
   
  Link Results at 4:35:00 hrs:
  ------------------------------------
                       Flow     State
  Link                 m3/h          
  ------------------------------------
  1                   67.20      open
  2                   30.96      open
  3                  302.47      open
  4                   41.39      open
  5                   25.51      open
  6                  217.60      open
  7                   97.99      open
  8                  405.92      open
   
   
  Node Results at 4:40:00 hrs:
  ----------------------------------------------
                     Demand      Head  Pressure
  Node                 m3/h         m         m
  ----------------------------------------------
  1                   37.06    206.68     46.68
  2                   37.06    208.84     58.84
  3                  100.07    204.60     54.60
  4                   44.47    208.17     53.17
  5                   74.12    206.05     46.05
  6                  122.30    207.52     42.52
  7                 -415.09    210.00      0.00  Reservoir
   
   
  Link Results at 4:40:00 hrs:
  ------------------------------------
                       Flow     State
  Link                 m3/h          
  ------------------------------------
  1                   68.72      open
  2                   31.66      open
  3                  309.30      open
  4                   42.32      open
  5                   26.08      open
  6                  222.51      open
  7                  100.21      open
  8                  415.09      open
   
   
  Node Results at 4:45:00 hrs:
  ----------------------------------------------
                     Demand      Head  Pressure
  Node                 m3/h         m         m
  ----------------------------------------------
  1                   38.23    206.49     46.49
  2                   38.23    208.77     58.77
  3                  103.23    204.28     54.28
  4                   45.88    208.06     53.06
  5                   76.47    205.82     45.82
  6                  126.17    207.37     42.37
  7                 -428.23    210.00      0.00  Reservoir
   
   
  Link Results at 4:45:00 hrs:
  ------------------------------------
                       Flow     State
  Link                 m3/h          
  ------------------------------------
  1                   70.90      open
  2                   32.66      open
  3                  319.10      open
  4                   43.66      open
  5                   26.91      open
  6                  229.55      open
  7                  103.38      open
  8                  428.23      open
   
   
  Node Results at 4:50:00 hrs:
  ----------------------------------------------
                     Demand      Head  Pressure
  Node                 m3/h         m         m
  ----------------------------------------------
  1                   38.37    206.46     46.46
  2                   38.37    208.76     58.76
  3                  103.60    204.24     54.24
  4                   46.05    208.04     53.04
  5                   76.74    205.79     45.79
  6                  126.63    207.35     42.35
  7                 -429.77    210.00      0.00  Reservoir
   
   
  Link Results at 4:50:00 hrs:
  ------------------------------------
                       Flow     State
  Link                 m3/h          
  ------------------------------------
  1                   71.15      open
  2                   32.78      open
  3                  320.24      open
  4                   43.82      open
  5                   27.01      open
  6                  230.38      open
  7                  103.75      open
  8                  429.77      open
   
   
  Node Results at 4:55:00 hrs:
  ----------------------------------------------
                     Demand      Head  Pressure
  Node                 m3/h         m         m
  ----------------------------------------------
  1                   39.26    206.31     46.31
  2                   39.26    208.71     58.71
  3                  106.00    203.99     53.99
  4                   47.11    207.96     52.96
  5                   78.52    205.61     45.61
  6                  129.55    207.24     42.24
  7                 -439.70    210.00      0.00  Reservoir
   
   
  Link Results at 4:55:00 hrs:
  ------------------------------------
                       Flow     State
  Link                 m3/h          
  ------------------------------------
  1                   72.80      open
  2                   33.54      open
  3                  327.65      open
  4                   44.83      open
  5                   27.63      open
  6                  235.70      open
  7                  106.15      open
  8                  439.70      open
   
   
  Node Results at 5:00:00 hrs:
  ----------------------------------------------
                     Demand      Head  Pressure
  Node                 m3/h         m         m
  ----------------------------------------------
  1                   39.46    206.27     46.27
  2                   39.46    208.70     58.70
  3                  106.55    203.93     53.93
  4                   47.35    207.94     52.94
  5                   78.92    205.57     45.57
  6                  130.22    207.21     42.21
  7                 -441.98    210.00      0.00  Reservoir
   
   
  Link Results at 5:00:00 hrs:
  ------------------------------------
                       Flow     State
  Link                 m3/h          
  ------------------------------------
  1                   73.17      open
  2                   33.71      open
  3                  329.34      open
  4                   45.06      open
  5                   27.77      open
  6                  236.92      open
  7                  106.70      open
  8                  441.98      open
   
   
  Node Results at 5:05:00 hrs:
  ----------------------------------------------
                     Demand      Head  Pressure
  Node                 m3/h         m         m
  ----------------------------------------------
  1                   39.91    206.19     46.19
  2                   39.91    208.67     58.67
  3                  107.77    203.80     53.80
  4                   47.90    207.90     52.90
  5                   79.83    205.47     45.47
  6                  131.72    207.15     42.15
  7                 -447.03    210.00      0.00  Reservoir
   
   
  Link Results at 5:05:00 hrs:
  ------------------------------------
                       Flow     State
  Link                 m3/h          
  ------------------------------------
  1                   74.01      open
  2                   34.10      open
  3                  333.11      open
  4                   45.58      open
  5                   28.09      open
  6                  239.63      open
  7                  107.92      open
  8                  447.03      open
   
   
  Node Results at 5:10:00 hrs:
  ----------------------------------------------
                     Demand      Head  Pressure
  Node                 m3/h         m         m
  ----------------------------------------------
  1                   39.57    206.26     46.26
  2                   39.57    208.69     58.69
  3                  106.83    203.90     53.90
  4                   47.48    207.93     52.93
  5                   79.13    205.55     45.55
  6                  130.57    207.20     42.20
  7                 -443.15    210.00      0.00  Reservoir
   
   
  Link Results at 5:10:00 hrs:
  ------------------------------------
                       Flow     State
  Link                 m3/h          
  ------------------------------------
  1                   73.37      open
  2                   33.80      open
  3                  330.21      open
  4                   45.18      open
  5                   27.85      open
  6                  237.55      open
  7                  106.98      open
  8                  443.15      open
   
   
  Node Results at 5:15:00 hrs:
  ----------------------------------------------
                     Demand      Head  Pressure
  Node                 m3/h         m         m
  ----------------------------------------------
  1                   38.76    206.40     46.40
  2                   38.76    208.74     58.74
  3                  104.65    204.13     54.13
  4                   46.51    208.01     53.01
  5                   77.52    205.71     45.71
  6                  127.90    207.30     42.30
  7                 -434.10    210.00      0.00  Reservoir
   
   
  Link Results at 5:15:00 hrs:
  ------------------------------------
                       Flow     State
  Link                 m3/h          
  ------------------------------------
  1                   71.87      open
  2                   33.11      open
  3                  323.47      open
  4                   44.26      open
  5                   27.28      open
  6                  232.70      open
  7                  104.80      open
  8                  434.10      open
   
   
  Node Results at 5:20:00 hrs:
  ----------------------------------------------
                     Demand      Head  Pressure
  Node                 m3/h         m         m
  ----------------------------------------------
  1                   40.21    206.14     46.14
  2                   40.21    208.65     58.65
  3                  108.55    203.72     53.72
  4                   48.25    207.87     52.87
  5                   80.41    205.41     45.41
  6                  132.68    207.11     42.11
  7                 -450.30    210.00      0.00  Reservoir
   
   
  Link Results at 5:20:00 hrs:
  ------------------------------------
                       Flow     State
  Link                 m3/h          
  ------------------------------------
  1                   74.55      open
  2                   34.35      open
  3                  335.54      open
  4                   45.91      open
  5                   28.30      open
  6                  241.39      open
  7                  108.71      open
  8                  450.30      open
   
   
  Node Results at 5:25:00 hrs:
  ----------------------------------------------
                     Demand      Head  Pressure
  Node                 m3/h         m         m
  ----------------------------------------------
  1                   39.74    206.22     46.22
  2                   39.74    208.68     58.68
  3                  107.31    203.85     53.85
  4                   47.69    207.91     52.91
  5                   79.49    205.51     45.51
  6                  131.16    207.17     42.17
  7                 -445.14    210.00      0.00  Reservoir
   
   
  Link Results at 5:25:00 hrs:
  ------------------------------------
                       Flow     State
  Link                 m3/h          
  ------------------------------------
  1                   73.70      open
  2                   33.95      open
  3                  331.70      open
  4                   45.38      open
  5                   27.97      open
  6                  238.62      open
  7                  107.46      open
  8                  445.14      open
   
   
  Node Results at 5:30:00 hrs:
  ----------------------------------------------
                     Demand      Head  Pressure
  Node                 m3/h         m         m
  ----------------------------------------------
  1                   38.93    206.37     46.37
  2                   38.93    208.73     58.73
  3                  105.12    204.08     54.08
  4                   46.72    207.99     52.99
  5                   77.86    205.68     45.68
  6                  128.48    207.28     42.28
  7                 -436.04    210.00      0.00  Reservoir
   
   
  Link Results at 5:30:00 hrs:
  ------------------------------------
                       Flow     State
  Link                 m3/h          
  ------------------------------------
  1                   72.19      open
  2                   33.26      open
  3                  324.92      open
  4                   44.46      open
  5                   27.40      open
  6                  233.74      open
  7                  105.27      open
  8                  436.04      open
   
   
  Node Results at 5:35:00 hrs:
  ----------------------------------------------
                     Demand      Head  Pressure
  Node                 m3/h         m         m
  ----------------------------------------------
  1                   41.06    205.99     45.99
  2                   41.06    208.60     58.60
  3                  110.87    203.47     53.47
  4                   49.28    207.78     52.78
  5                   82.13    205.23     45.23
  6                  135.51    207.00     42.00
  7                 -459.90    210.00      0.00  Reservoir
   
   
  Link Results at 5:35:00 hrs:
  ------------------------------------
                       Flow     State
  Link                 m3/h          
  ------------------------------------
  1                   76.14      open
  2                   35.08      open
  3                  342.70      open
  4                   46.89      open
  5                   28.90      open
  6                  246.53      open
  7                  111.03      open
  8                  459.90      open
   
   
  Node Results at 5:40:00 hrs:
  ----------------------------------------------
                     Demand      Head  Pressure
  Node                 m3/h         m         m
  ----------------------------------------------
  1                   40.73    206.05     46.05
  2                   40.73    208.62     58.62
  3                  109.97    203.57     53.57
  4                   48.88    207.82     52.82
  5                   81.46    205.30     45.30
  6                  134.41    207.04     42.04
  7                 -456.17    210.00      0.00  Reservoir
   
   
  Link Results at 5:40:00 hrs:
  ------------------------------------
                       Flow     State
  Link                 m3/h          
  ------------------------------------
  1                   75.52      open
  2                   34.79      open
  3                  339.92      open
  4                   46.51      open
  5                   28.67      open
  6                  244.53      open
  7                  110.13      open
  8                  456.17      open
   
   
  Node Results at 5:45:00 hrs:
  ----------------------------------------------
                     Demand      Head  Pressure
  Node                 m3/h         m         m
  ----------------------------------------------
  1                   42.77    205.68     45.68
  2                   42.77    208.49     58.49
  3                  115.47    202.96     52.96
  4                   51.32    207.61     52.61
  5                   85.53    204.86     44.86
  6                  141.13    206.76     41.76
  7                 -478.98    210.00      0.00  Reservoir
   
   
  Link Results at 5:45:00 hrs:
  ------------------------------------
                       Flow     State
  Link                 m3/h          
  ------------------------------------
  1                   79.30      open
  2                   36.53      open
  3                  356.91      open
  4                   48.83      open
  5                   30.10      open
  6                  256.76      open
  7                  115.63      open
  8                  478.98      open
   
   
  Node Results at 5:50:00 hrs:
  ----------------------------------------------
                     Demand      Head  Pressure
  Node                 m3/h         m         m
  ----------------------------------------------
  1                   45.14    205.22     45.22
  2                   45.14    208.33     58.33
  3                  121.89    202.22     52.22
  4                   54.17    207.36     52.36
  5                   90.29    204.31     44.31
  6                  148.97    206.42     41.42
  7                 -505.61    210.00      0.00  Reservoir
   
   
  Link Results at 5:50:00 hrs:
  ------------------------------------
                       Flow     State
  Link                 m3/h          
  ------------------------------------
  1                   83.71      open
  2                   38.57      open
  3                  376.76      open
  4                   51.55      open
  5                   31.77      open
  6                  271.03      open
  7                  122.06      open
  8                  505.61      open
   
   
  Node Results at 5:55:00 hrs:
  ----------------------------------------------
                     Demand      Head  Pressure
  Node                 m3/h         m         m
  ----------------------------------------------
  1                   47.01    204.85     44.85
  2                   47.01    208.20     58.20
  3                  126.93    201.61     51.61
  4                   56.41    207.15     52.15
  5                   94.02    203.87     43.87
  6                  155.14    206.14     41.14
  7                 -526.53    210.00      0.00  Reservoir
   
   
  Link Results at 5:55:00 hrs:
  ------------------------------------
                       Flow     State
  Link                 m3/h          
  ------------------------------------
  1                   87.17      open
  2                   40.16      open
  3                  392.35      open
  4                   53.68      open
  5                   33.09      open
  6                  282.25      open
  7                  127.11      open
  8                  526.53      open
   
   
  Node Results at 6:00:00 hrs:
  ----------------------------------------------
                     Demand      Head  Pressure
  Node                 m3/h         m         m
  ----------------------------------------------
  1                   51.14    203.98     43.98
  2                   51.14    207.89     57.89
  3                  138.08    200.19     50.19
  4                   61.37    206.67     51.67
  5                  102.28    202.84     42.84
  6                  168.76    205.49     40.49
  7                 -572.76    210.00      0.00  Reservoir
   
   
  Link Results at 6:00:00 hrs:
  ------------------------------------
                       Flow     State
  Link                 m3/h          
  ------------------------------------
  1                   94.83      open
  2                   43.69      open
  3                  426.80      open
  4                   58.40      open
  5                   35.99      open
  6                  307.03      open
  7                  138.27      open
  8                  572.76      open
   
   
  Node Results at 6:05:00 hrs:
  ----------------------------------------------
                     Demand      Head  Pressure
  Node                 m3/h         m         m
  ----------------------------------------------
  1                   52.55    203.67     43.67
  2                   52.55    207.78     57.78
  3                  141.88    199.69     49.69
  4                   63.06    206.50     51.50
  5                  105.10    202.47     42.47
  6                  173.41    205.26     40.26
  7                 -588.55    210.00      0.00  Reservoir
   
   
  Link Results at 6:05:00 hrs:
  ------------------------------------
                       Flow     State
  Link                 m3/h          
  ------------------------------------
  1                   97.44      open
  2                   44.89      open
[...]
   
   
  Link Results at 22:30:00 hrs:
  ------------------------------------
                       Flow     State
  Link                 m3/h          
  ------------------------------------
  1                  237.36      open
  2                  109.35      open
  3                 1068.30      open
  4                  146.17      open
  5                   90.09      open
  6                  768.52      open
  7                  346.10      open
  8                 1433.66      open
   
   
  Node Results at 22:35:00 hrs:
  ----------------------------------------------
                     Demand      Head  Pressure
  Node                 m3/h         m         m
  ----------------------------------------------
  1                  119.14    181.16     21.16
  2                  119.14    199.91     49.91
  3                  321.67    163.04     13.04
  4                  142.96    194.06     39.06
  5                  238.27    175.70     15.70
  6                  393.15    188.41     23.41
  7                -1334.33    210.00      0.00  Reservoir
   
   
  Link Results at 22:35:00 hrs:
  ------------------------------------
                       Flow     State
  Link                 m3/h          
  ------------------------------------
  1                  220.91      open
  2                  101.78      open
  3                  994.28      open
  4                  136.04      open
  5                   83.85      open
  6                  715.27      open
  7                  322.12      open
  8                 1334.33      open
   
   
  Node Results at 22:40:00 hrs:
  ----------------------------------------------
                     Demand      Head  Pressure
  Node                 m3/h         m         m
  ----------------------------------------------
  1                  130.05    176.08     16.08
  2                  130.05    198.13     48.13
  3                  351.13    154.77      4.77
  4                  156.06    191.25     36.25
  5                  260.10    169.65      9.65
  6                  429.16    184.61     19.61
  7                -1456.56    210.00      0.00  Reservoir
   
   
  Link Results at 22:40:00 hrs:
  ------------------------------------
                       Flow     State
  Link                 m3/h          
  ------------------------------------
  1                  241.15      open
  2                  111.10      open
  3                 1085.36      open
  4                  148.50      open
  5                   91.53      open
  6                  780.80      open
  7                  351.63      open
  8                 1456.56      open
   
   
  Node Results at 22:45:00 hrs:
  ----------------------------------------------
                     Demand      Head  Pressure
  Node                 m3/h         m         m
  ----------------------------------------------
  1                  125.03    178.47     18.47
  2                  125.03    198.97     48.97
  3                  337.57    158.65      8.65
  4                  150.03    192.57     37.57
  5                  250.05    172.49     12.49
  6                  412.58    186.39     21.39
  7                -1400.28    210.00      0.00  Reservoir
   
   
  Link Results at 22:45:00 hrs:
  ------------------------------------
                       Flow     State
  Link                 m3/h          
  ------------------------------------
  1                  231.83      open
  2                  106.81      open
  3                 1043.43      open
  4                  142.77      open
  5                   88.00      open
  6                  750.63      open
  7                  338.05      open
  8                 1400.28      open
   
   
  Node Results at 22:50:00 hrs:
  ----------------------------------------------
                     Demand      Head  Pressure
  Node                 m3/h         m         m
  ----------------------------------------------
  1                  121.23    180.22     20.22
  2                  121.23    199.58     49.58
  3                  327.33    161.50     11.50
  4                  145.48    193.53     38.53
  5                  242.47    174.57     14.57
  6                  400.07    187.70     22.70
  7                -1357.81    210.00      0.00  Reservoir
   
   
  Link Results at 22:50:00 hrs:
  ------------------------------------
                       Flow     State
  Link                 m3/h          
  ------------------------------------
  1                  224.80      open
  2                  103.57      open
  3                 1011.78      open
  4                  138.44      open
  5                   85.33      open
  6                  727.86      open
  7                  327.79      open
  8                 1357.81      open
   
   
  Node Results at 22:55:00 hrs:
  ----------------------------------------------
                     Demand      Head  Pressure
  Node                 m3/h         m         m
  ----------------------------------------------
  1                  120.54    180.53     20.53
  2                  120.54    199.69     49.69
  3                  325.45    162.02     12.02
  4                  144.64    193.71     38.71
  5                  241.07    174.95     14.95
  6                  397.77    187.94     22.94
  7                -1349.99    210.00      0.00  Reservoir
   
   
  Link Results at 22:55:00 hrs:
  ------------------------------------
                       Flow     State
  Link                 m3/h          
  ------------------------------------
  1                  223.51      open
  2                  102.97      open
  3                 1005.95      open
  4                  137.64      open
  5                   84.84      open
  6                  723.67      open
  7                  325.91      open
  8                 1349.99      open
   
   
  Node Results at 23:00:00 hrs:
  ----------------------------------------------
                     Demand      Head  Pressure
  Node                 m3/h         m         m
  ----------------------------------------------
  1                  121.19    180.24     20.24
  2                  121.19    199.59     49.59
  3                  327.20    161.54     11.54
  4                  145.42    193.55     38.55
  5                  242.37    174.60     14.60
  6                  399.91    187.72     22.72
  7                -1357.27    210.00      0.00  Reservoir
   
   
  Link Results at 23:00:00 hrs:
  ------------------------------------
                       Flow     State
  Link                 m3/h          
  ------------------------------------
  1                  224.71      open
  2                  103.53      open
  3                 1011.38      open
  4                  138.38      open
  5                   85.29      open
  6                  727.57      open
  7                  327.66      open
  8                 1357.27      open
   
   
  Node Results at 23:05:00 hrs:
  ----------------------------------------------
                     Demand      Head  Pressure
  Node                 m3/h         m         m
  ----------------------------------------------
  1                  118.10    181.62     21.62
  2                  118.10    200.07     50.07
  3                  318.87    163.80     13.80
  4                  141.72    194.31     39.31
  5                  236.20    176.25     16.25
  6                  389.73    188.76     23.76
  7                -1322.73    210.00      0.00  Reservoir
   
   
  Link Results at 23:05:00 hrs:
  ------------------------------------
                       Flow     State
  Link                 m3/h          
  ------------------------------------
  1                  218.99      open
  2                  100.89      open
  3                  985.64      open
  4                  134.86      open
  5                   83.12      open
  6                  709.06      open
  7                  319.33      open
  8                 1322.73      open
   
   
  Node Results at 23:10:00 hrs:
  ----------------------------------------------
                     Demand      Head  Pressure
  Node                 m3/h         m         m
  ----------------------------------------------
  1                  111.87    184.33     24.33
  2                  111.87    201.02     51.02
  3                  302.06    168.21     18.21
  4                  134.25    195.81     40.81
  5                  223.75    179.47     19.47
  6                  369.18    190.79     25.79
  7                -1252.97    210.00      0.00  Reservoir
   
   
  Link Results at 23:10:00 hrs:
  ------------------------------------
                       Flow     State
  Link                 m3/h          
  ------------------------------------
  1                  207.44      open
  2                   95.57      open
  3                  933.66      open
  4                  127.75      open
  5                   78.74      open
  6                  671.66      open
  7                  302.48      open
  8                 1252.97      open
   
   
  Node Results at 23:15:00 hrs:
  ----------------------------------------------
                     Demand      Head  Pressure
  Node                 m3/h         m         m
  ----------------------------------------------
  1                  119.43    181.03     21.03
  2                  119.43    199.86     49.86
  3                  322.46    162.83     12.83
  4                  143.31    193.98     38.98
  5                  238.86    175.54     15.54
  6                  394.11    188.31     23.31
  7                -1337.60    210.00      0.00  Reservoir
   
   
  Link Results at 23:15:00 hrs:
  ------------------------------------
                       Flow     State
  Link                 m3/h          
  ------------------------------------
  1                  221.45      open
  2                  102.02      open
  3                  996.72      open
  4                  136.37      open
  5                   84.06      open
  6                  717.03      open
  7                  322.91      open
  8                 1337.60      open
   
   
  Node Results at 23:20:00 hrs:
  ----------------------------------------------
                     Demand      Head  Pressure
  Node                 m3/h         m         m
  ----------------------------------------------
  1                  112.37    184.12     24.12
  2                  112.37    200.94     50.94
  3                  303.41    167.86     17.86
  4                  134.85    195.69     40.69
  5                  224.75    179.22     19.22
  6                  370.84    190.63     25.63
  7                -1258.60    210.00      0.00  Reservoir
   
   
  Link Results at 23:20:00 hrs:
  ------------------------------------
                       Flow     State
  Link                 m3/h          
  ------------------------------------
  1                  208.37      open
  2                   96.00      open
  3                  937.85      open
  4                  128.32      open
  5                   79.09      open
  6                  674.68      open
  7                  303.84      open
  8                 1258.60      open
   
   
  Node Results at 23:25:00 hrs:
  ----------------------------------------------
                     Demand      Head  Pressure
  Node                 m3/h         m         m
  ----------------------------------------------
  1                  112.65    184.00     24.00
  2                  112.65    200.90     50.90
  3                  304.15    167.67     17.67
  4                  135.18    195.63     40.63
  5                  225.30    179.08     19.08
  6                  371.74    190.54     25.54
  7                -1261.68    210.00      0.00  Reservoir
   
   
  Link Results at 23:25:00 hrs:
  ------------------------------------
                       Flow     State
  Link                 m3/h          
  ------------------------------------
  1                  208.88      open
  2                   96.23      open
  3                  940.14      open
  4                  128.63      open
  5                   79.29      open
  6                  676.33      open
  7                  304.59      open
  8                 1261.68      open
   
   
  Node Results at 23:30:00 hrs:
  ----------------------------------------------
                     Demand      Head  Pressure
  Node                 m3/h         m         m
  ----------------------------------------------
  1                  106.51    186.56     26.56
  2                  106.51    201.80     51.80
  3                  287.59    171.84     21.84
  4                  127.82    197.04     42.04
  5                  213.03    182.13     22.13
  6                  351.49    192.46     27.46
  7                -1192.95    210.00      0.00  Reservoir
   
   
  Link Results at 23:30:00 hrs:
  ------------------------------------
                       Flow     State
  Link                 m3/h          
  ------------------------------------
  1                  197.51      open
  2                   90.99      open
  3                  888.93      open
  4                  121.63      open
  5                   74.97      open
  6                  639.49      open
  7                  287.99      open
  8                 1192.95      open
   
   
  Node Results at 23:35:00 hrs:
  ----------------------------------------------
                     Demand      Head  Pressure
  Node                 m3/h         m         m
  ----------------------------------------------
  1                  108.69    185.67     25.67
  2                  108.69    201.49     51.49
  3                  293.47    170.38     20.38
  4                  130.43    196.55     41.55
  5                  217.38    181.06     21.06
  6                  358.69    191.79     26.79
  7                -1217.36    210.00      0.00  Reservoir
   
   
  Link Results at 23:35:00 hrs:
  ------------------------------------
                       Flow     State
  Link                 m3/h          
  ------------------------------------
  1                  201.55      open
  2                   92.85      open
  3                  907.12      open
  4                  124.12      open
  5                   76.50      open
  6                  652.57      open
  7                  293.89      open
  8                 1217.36      open
   
   
  Node Results at 23:40:00 hrs:
  ----------------------------------------------
                     Demand      Head  Pressure
  Node                 m3/h         m         m
  ----------------------------------------------
  1                  103.31    187.85     27.85
  2                  103.31    202.25     52.25
  3                  278.94    173.94     23.94
  4                  123.98    197.76     42.76
  5                  206.63    183.66     23.66
  6                  340.93    193.42     28.42
  7                -1157.10    210.00      0.00  Reservoir
   
   
  Link Results at 23:40:00 hrs:
  ------------------------------------
                       Flow     State
  Link                 m3/h          
  ------------------------------------
  1                  191.57      open
  2                   88.26      open
  3                  862.22      open
  4                  117.97      open
  5                   72.71      open
  6                  620.27      open
  7                  279.34      open
  8                 1157.10      open
   
   
  Node Results at 23:45:00 hrs:
  ----------------------------------------------
                     Demand      Head  Pressure
  Node                 m3/h         m         m
  ----------------------------------------------
  1                  101.04    188.75     28.75
  2                  101.04    202.56     52.56
  3                  272.80    175.39     25.39
  4                  121.24    198.25     43.25
  5                  202.07    184.72     24.72
  6                  333.42    194.09     29.09
  7                -1131.59    210.00      0.00  Reservoir
   
   
  Link Results at 23:45:00 hrs:
  ------------------------------------
                       Flow     State
  Link                 m3/h          
  ------------------------------------
  1                  187.35      open
  2                   86.31      open
  3                  843.21      open
  4                  115.37      open
  5                   71.11      open
  6                  606.60      open
  7                  273.18      open
  8                 1131.59      open
   
   
  Node Results at 23:50:00 hrs:
  ----------------------------------------------
                     Demand      Head  Pressure
  Node                 m3/h         m         m
  ----------------------------------------------
  1                   94.71    191.15     31.15
  2                   94.71    203.40     53.40
  3                  255.72    179.30     29.30
  4                  113.65    199.58     44.58
  5                  189.42    187.57     27.57
  6                  312.55    195.89     30.89
  7                -1060.77    210.00      0.00  Reservoir
   
   
  Link Results at 23:50:00 hrs:
  ------------------------------------
                       Flow     State
  Link                 m3/h          
  ------------------------------------
  1                  175.62      open
  2                   80.91      open
  3                  790.44      open
  4                  108.15      open
  5                   66.66      open
  6                  568.63      open
  7                  256.08      open
  8                 1060.77      open
   
   
  Node Results at 23:55:00 hrs:
  ----------------------------------------------
                     Demand      Head  Pressure
  Node                 m3/h         m         m
  ----------------------------------------------
  1                   95.73    190.77     30.77
  2                   95.73    203.27     53.27
  3                  258.46    178.69     28.69
  4                  114.87    199.37     44.37
  5                  191.45    187.13     27.13
  6                  315.90    195.60     30.60
  7                -1072.13    210.00      0.00  Reservoir
   
   
  Link Results at 23:55:00 hrs:
  ------------------------------------
                       Flow     State
  Link                 m3/h          
  ------------------------------------
  1                  177.50      open
  2                   81.78      open
  3                  798.90      open
  4                  109.31      open
  5                   67.37      open
  6                  574.72      open
  7                  258.83      open
  8                 1072.13      open
   
   
  Node Results at 24:00:00 hrs:
  ----------------------------------------------
                     Demand      Head  Pressure
  Node                 m3/h         m         m
  ----------------------------------------------
  1                   93.18    191.71     31.71
  2                   93.18    203.60     53.60
  3                  251.57    180.21     30.21
  4                  111.81    199.89     44.89
  5                  186.35    188.24     28.24
  6                  307.48    196.31     31.31
  7                -1043.56    210.00      0.00  Reservoir
   
   
  Link Results at 24:00:00 hrs:
  ------------------------------------
                       Flow     State
  Link                 m3/h          
  ------------------------------------
  1                  172.77      open
  2                   79.60      open
  3                  777.62      open
  4                  106.40      open
  5                   65.58      open
  6                  559.41      open
  7                  251.93      open
  8                 1043.56      open
   
  Analysis ended Wed Mar  1 15:52:27 2023
