  Page 1                                    Tue Mar  7 12:01:40 2023

  ******************************************************************
  *                           E P A N E T                          *
  *                   Hydraulic and Water Quality                  *
  *                   Analysis for Pipe Networks                   *
  *                         Version 2.2                            *
  ******************************************************************
  
  Analysis begun Tue Mar  7 12:01:40 2023

   
  Node Results at 0:00:00 hrs:
  ----------------------------------------------
                     Demand      Head  Pressure
  Node                 m3/h         m         m
  ----------------------------------------------
  1                   99.53    189.33     29.33
  2                   99.53    202.77     52.77
  3                  268.72    176.35     26.35
  4                  119.43    198.57     43.57
  5                  199.05    185.42     25.42
  6                  328.44    194.53     29.53
  7                -1114.69    210.00      0.00  Reservoir
   
   
  Link Results at 0:00:00 hrs:
  ------------------------------------
                       Flow     State
  Link                 m3/h          
  ------------------------------------
  1                  184.55      open
  2                   85.02      open
  3                  830.62      open
  4                  113.65      open
  5                   70.05      open
  6                  597.54      open
  7                  269.10      open
  8                 1114.69      open
   
   
  Node Results at 0:30:00 hrs:
  ----------------------------------------------
                     Demand      Head  Pressure
  Node                 m3/h         m         m
  ----------------------------------------------
  1                   72.80    198.42     38.42
  2                   72.80    205.95     55.95
  3                  196.56    191.14     41.14
  4                   87.36    203.60     48.60
  5                  145.60    196.22     36.22
  6                  240.24    201.33     36.33
  7                 -815.36    210.00      0.00  Reservoir
   
   
  Link Results at 0:30:00 hrs:
  ------------------------------------
                       Flow     State
  Link                 m3/h          
  ------------------------------------
  1                  134.99      open
  2                   62.19      open
  3                  607.57      open
  4                   83.13      open
  5                   51.24      open
  6                  437.08      open
  7                  196.84      open
  8                  815.36      open
   
   
  Node Results at 1:00:00 hrs:
  ----------------------------------------------
                     Demand      Head  Pressure
  Node                 m3/h         m         m
  ----------------------------------------------
  1                   63.52    201.00     41.00
  2                   63.52    206.85     56.85
  3                  171.51    195.35     45.35
  4                   76.23    205.03     50.03
  5                  127.05    199.30     39.30
  6                  209.63    203.26     38.26
  7                 -711.46    210.00      0.00  Reservoir
   
   
  Link Results at 1:00:00 hrs:
  ------------------------------------
                       Flow     State
  Link                 m3/h          
  ------------------------------------
  1                  117.79      open
  2                   54.27      open
  3                  530.15      open
  4                   72.54      open
  5                   44.71      open
  6                  381.38      open
  7                  171.76      open
  8                  711.46      open
   
   
  Node Results at 1:30:00 hrs:
  ----------------------------------------------
                     Demand      Head  Pressure
  Node                 m3/h         m         m
  ----------------------------------------------
  1                   61.15    201.61     41.61
  2                   61.15    207.07     57.07
  3                  165.12    196.34     46.34
  4                   73.39    205.36     50.36
  5                  122.31    200.02     40.02
  6                  201.81    203.72     38.72
  7                 -684.93    210.00      0.00  Reservoir
   
   
  Link Results at 1:30:00 hrs:
  ------------------------------------
                       Flow     State
  Link                 m3/h          
  ------------------------------------
  1                  113.40      open
  2                   52.24      open
  3                  510.38      open
  4                   69.83      open
  5                   43.04      open
  6                  367.16      open
  7                  165.35      open
  8                  684.93      open
   
   
  Node Results at 2:00:00 hrs:
  ----------------------------------------------
                     Demand      Head  Pressure
  Node                 m3/h         m         m
  ----------------------------------------------
  1                   55.60    202.97     42.97
  2                   55.60    207.54     57.54
  3                  150.13    198.55     48.55
  4                   66.72    206.11     51.11
  5                  111.21    201.64     41.64
  6                  183.49    204.74     39.74
  7                 -622.75    210.00      0.00  Reservoir
   
   
  Link Results at 2:00:00 hrs:
  ------------------------------------
                       Flow     State
  Link                 m3/h          
  ------------------------------------
  1                  103.10      open
  2                   47.50      open
  3                  464.05      open
  4                   63.49      open
  5                   39.13      open
  6                  333.83      open
  7                  150.34      open
  8                  622.75      open
   
   
  Node Results at 2:30:00 hrs:
  ----------------------------------------------
                     Demand      Head  Pressure
  Node                 m3/h         m         m
  ----------------------------------------------
  1                   43.10    205.61     45.61
  2                   43.10    208.47     58.47
  3                  116.36    202.86     52.86
  4                   51.71    207.58     52.58
  5                   86.19    204.78     44.78
  6                  142.21    206.72     41.72
  7                 -482.67    210.00      0.00  Reservoir
   
   
  Link Results at 2:30:00 hrs:
  ------------------------------------
                       Flow     State
  Link                 m3/h          
  ------------------------------------
  1                   79.91      open
  2                   36.82      open
  3                  359.66      open
  4                   49.21      open
  5                   30.33      open
  6                  258.74      open
  7                  116.52      open
  8                  482.67      open
   
   
  Node Results at 3:00:00 hrs:
  ----------------------------------------------
                     Demand      Head  Pressure
  Node                 m3/h         m         m
  ----------------------------------------------
  1                   42.28    205.77     45.77
  2                   42.28    208.52     58.52
  3                  114.16    203.11     53.11
  4                   50.74    207.66     52.66
  5                   84.56    204.96     44.96
  6                  139.52    206.83     41.83
  7                 -473.54    210.00      0.00  Reservoir
   
   
  Link Results at 3:00:00 hrs:
  ------------------------------------
                       Flow     State
  Link                 m3/h          
  ------------------------------------
  1                   78.40      open
  2                   36.12      open
  3                  352.86      open
  4                   48.28      open
  5                   29.76      open
  6                  253.84      open
  7                  114.32      open
  8                  473.54      open
   
   
  Node Results at 3:30:00 hrs:
  ----------------------------------------------
                     Demand      Head  Pressure
  Node                 m3/h         m         m
  ----------------------------------------------
  1                   32.68    207.37     47.37
  2                   32.68    209.08     59.08
  3                   88.22    205.72     55.72
  4                   39.21    208.55     53.55
  5                   65.35    206.88     46.88
  6                  107.83    208.03     43.03
  7                 -365.97    210.00      0.00  Reservoir
   
   
  Link Results at 3:30:00 hrs:
  ------------------------------------
                       Flow     State
  Link                 m3/h          
  ------------------------------------
  1                   60.59      open
  2                   27.91      open
  3                  272.70      open
  4                   37.31      open
  5                   23.00      open
  6                  196.18      open
  7                   88.35      open
  8                  365.97      open
   
   
  Node Results at 4:00:00 hrs:
  ----------------------------------------------
                     Demand      Head  Pressure
  Node                 m3/h         m         m
  ----------------------------------------------
  1                   29.81    207.78     47.78
  2                   29.81    209.22     59.22
  3                   80.50    206.39     56.39
  4                   35.78    208.77     53.77
  5                   59.63    207.36     47.36
  6                   98.39    208.34     43.34
  7                 -333.92    210.00      0.00  Reservoir
   
   
  Link Results at 4:00:00 hrs:
  ------------------------------------
                       Flow     State
  Link                 m3/h          
  ------------------------------------
  1                   55.28      open
  2                   25.47      open
  3                  248.82      open
  4                   34.04      open
  5                   20.98      open
  6                  179.00      open
  7                   80.61      open
  8                  333.92      open
   
   
  Node Results at 4:30:00 hrs:
  ----------------------------------------------
                     Demand      Head  Pressure
  Node                 m3/h         m         m
  ----------------------------------------------
  1                   35.68    206.91     46.91
  2                   35.68    208.92     58.92
  3                   96.33    204.97     54.97
  4                   42.81    208.29     53.29
  5                   71.36    206.32     46.32
  6                  117.74    207.69     42.69
  7                 -399.59    210.00      0.00  Reservoir
   
   
  Link Results at 4:30:00 hrs:
  ------------------------------------
                       Flow     State
  Link                 m3/h          
  ------------------------------------
  1                   66.16      open
  2                   30.48      open
  3                  297.76      open
  4                   40.74      open
  5                   25.11      open
  6                  214.20      open
  7                   96.47      open
  8                  399.59      open
   
   
  Node Results at 5:00:00 hrs:
  ----------------------------------------------
                     Demand      Head  Pressure
  Node                 m3/h         m         m
  ----------------------------------------------
  1                   40.35    206.12     46.12
  2                   40.35    208.64     58.64
  3                  108.93    203.68     53.68
  4                   48.42    207.85     52.85
  5                   80.69    205.38     45.38
  6                  133.14    207.09     42.09
  7                 -451.87    210.00      0.00  Reservoir
   
   
  Link Results at 5:00:00 hrs:
  ------------------------------------
                       Flow     State
  Link                 m3/h          
  ------------------------------------
  1                   74.81      open
  2                   34.47      open
  3                  336.71      open
  4                   46.07      open
  5                   28.40      open
  6                  242.23      open
  7                  109.09      open
  8                  451.87      open
   
   
  Node Results at 5:30:00 hrs:
  ----------------------------------------------
                     Demand      Head  Pressure
  Node                 m3/h         m         m
  ----------------------------------------------
  1                   43.76    205.49     45.49
  2                   43.76    208.42     58.42
  3                  118.14    202.65     52.65
  4                   52.51    207.51     52.51
  5                   87.51    204.63     44.63
  6                  144.39    206.62     41.62
  7                 -490.06    210.00      0.00  Reservoir
   
   
  Link Results at 5:30:00 hrs:
  ------------------------------------
                       Flow     State
  Link                 m3/h          
  ------------------------------------
  1                   81.14      open
  2                   37.38      open
  3                  365.17      open
  4                   49.96      open
  5                   30.80      open
  6                  262.70      open
  7                  118.31      open
  8                  490.06      open
   
   
  Node Results at 6:00:00 hrs:
  ----------------------------------------------
                     Demand      Head  Pressure
  Node                 m3/h         m         m
  ----------------------------------------------
  1                   52.28    203.73     43.73
  2                   52.28    207.80     57.80
  3                  141.16    199.78     49.78
  4                   62.74    206.53     51.53
  5                  104.57    202.54     42.54
  6                  172.53    205.30     40.30
  7                 -585.57    210.00      0.00  Reservoir
   
   
  Link Results at 6:00:00 hrs:
  ------------------------------------
                       Flow     State
  Link                 m3/h          
  ------------------------------------
  1                   96.95      open
  2                   44.66      open
  3                  436.34      open
  4                   59.70      open
  5                   36.80      open
  6                  313.90      open
  7                  141.36      open
  8                  585.57      open
   
   
  Node Results at 6:30:00 hrs:
  ----------------------------------------------
                     Demand      Head  Pressure
  Node                 m3/h         m         m
  ----------------------------------------------
  1                   82.30    195.46     35.46
  2                   82.30    204.91     54.91
  3                  222.21    186.33     36.33
  4                   98.76    201.96     46.96
  5                  164.60    192.71     32.71
  6                  271.59    199.12     34.12
  7                 -921.76    210.00      0.00  Reservoir
   
   
  Link Results at 6:30:00 hrs:
  ------------------------------------
                       Flow     State
  Link                 m3/h          
  ------------------------------------
  1                  152.61      open
  2                   70.31      open
  3                  686.85      open
  4                   93.98      open
  5                   57.92      open
  6                  494.11      open
  7                  222.52      open
  8                  921.76      open
   
   
  Node Results at 7:00:00 hrs:
  ----------------------------------------------
                     Demand      Head  Pressure
  Node                 m3/h         m         m
  ----------------------------------------------
  1                  123.20    179.32     19.32
  2                  123.20    199.26     49.26
  3                  332.63    160.04     10.04
  4                  147.84    193.04     38.04
  5                  246.39    173.50     13.50
  6                  406.55    187.03     22.03
  7                -1379.79    210.00      0.00  Reservoir
   
   
  Link Results at 7:00:00 hrs:
  ------------------------------------
                       Flow     State
  Link                 m3/h          
  ------------------------------------
  1                  228.44      open
  2                  105.24      open
  3                 1028.16      open
  4                  140.68      open
  5                   86.71      open
  6                  739.65      open
  7                  333.10      open
  8                 1379.79      open
   
   
  Node Results at 7:30:00 hrs:
  ----------------------------------------------
                     Demand      Head  Pressure
  Node                 m3/h         m         m
  ----------------------------------------------
  1                  149.63    170.60     10.60
  2                  149.63    195.68     45.68
  3                  339.94    150.07      0.07
  4                  179.56    187.34     32.34
  5                  299.26    161.89      1.89
  6                  493.78    179.17     14.17
  7                -1611.80    210.00      0.00  Reservoir
   
   
  Link Results at 7:30:00 hrs:
  ------------------------------------
                       Flow     State
  Link                 m3/h          
  ------------------------------------
  1                  258.51      open
  2                  108.88      open
  3                 1203.66      open
  4                  150.24      open
  5                   80.82      open
  6                  873.86      open
  7                  380.08      open
  8                 1611.80      open
   
   
  Node Results at 8:00:00 hrs:
  ----------------------------------------------
                     Demand      Head  Pressure
  Node                 m3/h         m         m
  ----------------------------------------------
  1                  174.34    166.41      6.41
  2                  174.34    193.73     43.73
  3                  313.93    150.04      0.04
  4                  209.21    184.36     29.36
  5                  279.94    160.06      0.06
  6                  575.33    175.19     10.19
  7                -1727.10    210.00      0.00  Reservoir
   
   
  Link Results at 8:00:00 hrs:
  ------------------------------------
                       Flow     State
  Link                 m3/h          
  ------------------------------------
  1                  270.69      open
  2                   96.35      open
  3                 1282.07      open
  4                  143.67      open
  5                   73.91      open
  6                  929.19      open
  7                  353.85      open
  8                 1727.10      open
   
   
  Node Results at 8:30:00 hrs:
  ----------------------------------------------
                     Demand      Head  Pressure
  Node                 m3/h         m         m
  ----------------------------------------------
  1                  160.77    168.63      8.63
  2                  160.77    194.69     44.69
  3                  323.97    150.06      0.06
  4                  192.92    185.79     30.79
  5                  302.25    160.09      0.09
  6                  530.54    177.04     12.04
  7                -1671.22    210.00      0.00  Reservoir
   
   
  Link Results at 8:30:00 hrs:
  ------------------------------------
                       Flow     State
  Link                 m3/h          
  ------------------------------------
  1                  263.91      open
  2                  103.14      open
  3                 1246.54      open
  4                  146.86      open
  5                   73.96      open
  6                  906.76      open
  7                  376.22      open
  8                 1671.22      open
   
   
  Node Results at 9:00:00 hrs:
  ----------------------------------------------
                     Demand      Head  Pressure
  Node                 m3/h         m         m
  ----------------------------------------------
  1                  163.01    168.26      8.26
  2                  163.01    194.53     44.53
  3                  322.34    150.05      0.05
  4                  195.61    185.56     30.56
  5                  298.65    160.08      0.08
  6                  537.92    176.73     11.73
  7                -1680.53    210.00      0.00  Reservoir
   
   
  Link Results at 9:00:00 hrs:
  ------------------------------------
                       Flow     State
  Link                 m3/h          
  ------------------------------------
  1                  265.05      open
  2                  102.04      open
  3                 1252.47      open
  4                  146.34      open
  5                   73.95      open
  6                  910.53      open
  7                  372.61      open
  8                 1680.53      open
   
   
  Node Results at 9:30:00 hrs:
  ----------------------------------------------
                     Demand      Head  Pressure
  Node                 m3/h         m         m
  ----------------------------------------------
  1                  147.97    170.92     10.92
  2                  147.97    195.86     45.86
  3                  343.33    150.07      0.07
  4                  177.56    187.63     32.63
  5                  295.94    162.42      2.42
  6                  488.30    179.57     14.57
  7                -1601.08    210.00      0.00  Reservoir
   
   
  Link Results at 9:30:00 hrs:
  ------------------------------------
                       Flow     State
  Link                 m3/h          
  ------------------------------------
  1                  257.74      open
  2                  109.77      open
  3                 1195.37      open
  4                  150.84      open
  5                   82.72      open
  6                  866.96      open
  7                  378.66      open
  8                 1601.08      open
   
   
  Node Results at 10:00:00 hrs:
  ----------------------------------------------
                     Demand      Head  Pressure
  Node                 m3/h         m         m
  ----------------------------------------------
  1                  127.02    177.53     17.53
  2                  127.02    198.64     48.64
  3                  342.96    157.12      7.12
  4                  152.43    192.05     37.05
  5                  254.05    171.38     11.38
  6                  419.18    185.69     20.69
  7                -1422.66    210.00      0.00  Reservoir
   
   
  Link Results at 10:00:00 hrs:
  ------------------------------------
                       Flow     State
  Link                 m3/h          
  ------------------------------------
  1                  235.54      open
  2                  108.51      open
  3                 1060.10      open
  4                  145.05      open
  5                   89.40      open
  6                  762.62      open
  7                  343.45      open
  8                 1422.66      open
   
   
  Node Results at 10:30:00 hrs:
  ----------------------------------------------
                     Demand      Head  Pressure
  Node                 m3/h         m         m
  ----------------------------------------------
  1                  146.40    171.21     11.21
  2                  146.40    196.02     46.02
  3                  346.50    150.08      0.08
  4                  175.68    187.89     32.89
  5                  292.80    162.91      2.91
  6                  483.12    179.95     14.95
  7                -1590.89    210.00      0.00  Reservoir
   
   
  Link Results at 10:30:00 hrs:
  ------------------------------------
                       Flow     State
  Link                 m3/h          
  ------------------------------------
  1                  257.00      open
  2                  110.60      open
  3                 1187.49      open
  4                  151.41      open
  5                   84.48      open
  6                  860.40      open
  7                  377.28      open
  8                 1590.89      open
   
   
  Node Results at 11:00:00 hrs:
  ----------------------------------------------
                     Demand      Head  Pressure
  Node                 m3/h         m         m
  ----------------------------------------------
  1                  136.74    173.05     13.05
  2                  136.74    197.04     47.04
  3                  365.22    150.10      0.10
  4                  164.09    189.52     34.52
  5                  273.49    165.97      5.97
  6                  451.25    182.26     17.26
  7                -1527.54    210.00      0.00  Reservoir
   
   
  Link Results at 11:00:00 hrs:
  ------------------------------------
                       Flow     State
  Link                 m3/h          
  ------------------------------------
  1                  252.37      open
  2                  115.63      open
  3                 1138.42      open
  4                  154.85      open
  5                   94.75      open
  6                  819.48      open
  7                  368.23      open
  8                 1527.54      open
   
   
  Node Results at 11:30:00 hrs:
  ----------------------------------------------
                     Demand      Head  Pressure
  Node                 m3/h         m         m
  ----------------------------------------------
  1                  113.98    183.43     23.43
  2                  113.98    200.70     50.70
  3                  307.74    166.74     16.74
  4                  136.77    195.31     40.31
  5                  227.96    178.40     18.40
  6                  376.13    190.11     25.11
  7                -1276.56    210.00      0.00  Reservoir
   
   
  Link Results at 11:30:00 hrs:
  ------------------------------------
                       Flow     State
  Link                 m3/h          
  ------------------------------------
  1                  211.35      open
  2                   97.37      open
  3                  951.23      open
  4                  130.15      open
  5                   80.22      open
  6                  684.31      open
  7                  308.18      open
  8                 1276.56      open
   
   
  Node Results at 12:00:00 hrs:
  ----------------------------------------------
                     Demand      Head  Pressure
  Node                 m3/h         m         m
  ----------------------------------------------
  1                  124.98    178.49     18.49
  2                  124.98    198.97     48.97
  3                  337.45    158.69      8.69
  4                  149.98    192.58     37.58
  5                  249.96    172.52     12.52
  6                  412.44    186.41     21.41
  7                -1399.78    210.00      0.00  Reservoir
   
   
  Link Results at 12:00:00 hrs:
  ------------------------------------
                       Flow     State
  Link                 m3/h          
  ------------------------------------
  1                  231.75      open
  2                  106.77      open
  3                 1043.05      open
  4                  142.71      open
  5                   87.96      open
  6                  750.36      open
  7                  337.93      open
  8                 1399.78      open
   
   
  Node Results at 12:30:00 hrs:
  ----------------------------------------------
                     Demand      Head  Pressure
  Node                 m3/h         m         m
  ----------------------------------------------
  1                   94.21    191.33     31.33
  2                   94.21    203.47     53.47
  3                  254.36    179.60     29.60
  4                  113.05    199.68     44.68
  5                  188.41    187.79     27.79
  6                  310.88    196.02     31.02
  7                -1055.12    210.00      0.00  Reservoir
   
   
  Link Results at 12:30:00 hrs:
  ------------------------------------
                       Flow     State
  Link                 m3/h          
  ------------------------------------
  1                  174.69      open
  2                   80.48      open
  3                  786.23      open
  4                  107.57      open
  5                   66.31      open
  6                  565.60      open
  7                  254.72      open
  8                 1055.12      open
   
   
  Node Results at 13:00:00 hrs:
  ----------------------------------------------
                     Demand      Head  Pressure
  Node                 m3/h         m         m
  ----------------------------------------------
  1                  100.27    189.04     29.04
  2                  100.27    202.67     52.67
  3                  270.74    175.87     25.87
  4                  120.33    198.41     43.41
  5                  200.55    185.07     25.07
  6                  330.91    194.31     29.31
  7                -1123.08    210.00      0.00  Reservoir
   
   
  Link Results at 13:00:00 hrs:
  ------------------------------------
                       Flow     State
  Link                 m3/h          
  ------------------------------------
  1                  185.94      open
  2                   85.66      open
  3                  836.86      open
  4                  114.50      open
  5                   70.58      open
  6                  602.03      open
  7                  271.13      open
  8                 1123.08      open
   
   
  Node Results at 13:30:00 hrs:
  ----------------------------------------------
                     Demand      Head  Pressure
  Node                 m3/h         m         m
  ----------------------------------------------
  1                   99.23    189.45     29.45
  2                   99.23    202.81     52.81
  3                  267.91    176.53     26.53
  4                  119.07    198.64     43.64
  5                  198.45    185.55     25.55
  6                  327.45    194.61     29.61
  7                -1111.34    210.00      0.00  Reservoir
   
   
  Link Results at 13:30:00 hrs:
  ------------------------------------
                       Flow     State
  Link                 m3/h          
  ------------------------------------
  1                  183.99      open
  2                   84.77      open
  3                  828.12      open
  4                  113.31      open
  5                   69.84      open
  6                  595.74      open
  7                  268.29      open
  8                 1111.34      open
   
   
  Node Results at 14:00:00 hrs:
  ----------------------------------------------
                     Demand      Head  Pressure
  Node                 m3/h         m         m
  ----------------------------------------------
  1                  109.20    185.46     25.46
  2                  109.20    201.41     51.41
  3                  294.83    170.04     20.04
  4                  131.04    196.43     41.43
  5                  218.39    180.81     20.81
  6                  360.35    191.63     26.63
  7                -1223.00    210.00      0.00  Reservoir
   
   
  Link Results at 14:00:00 hrs:
  ------------------------------------
                       Flow     State
  Link                 m3/h          
  ------------------------------------
  1                  202.48      open
  2                   93.28      open
  3                  911.33      open
  4                  124.69      open
  5                   76.86      open
  6                  655.60      open
  7                  295.25      open
  8                 1223.00      open
   
   
  Node Results at 14:30:00 hrs:
  ----------------------------------------------
                     Demand      Head  Pressure
  Node                 m3/h         m         m
  ----------------------------------------------
  1                  103.78    187.67     27.67
  2                  103.78    202.18     52.18
  3                  280.20    173.63     23.63
  4                  124.53    197.65     42.65
  5                  207.56    183.44     23.44
  6                  342.47    193.28     28.28
  7                -1162.32    210.00      0.00  Reservoir
   
   
  Link Results at 14:30:00 hrs:
  ------------------------------------
                       Flow     State
  Link                 m3/h          
  ------------------------------------
  1                  192.43      open
  2                   88.66      open
  3                  866.11      open
  4                  118.50      open
  5                   73.04      open
  6                  623.07      open
  7                  280.60      open
  8                 1162.32      open
   
   
  Node Results at 15:00:00 hrs:
  ----------------------------------------------
                     Demand      Head  Pressure
  Node                 m3/h         m         m
  ----------------------------------------------
  1                   90.84    192.55     32.55
  2                   90.84    203.89     53.89
  3                  245.26    181.58     31.58
  4                  109.00    200.35     45.35
  5                  181.67    189.24     29.24
  6                  299.76    196.94     31.94
  7                -1017.37    210.00      0.00  Reservoir
   
   
  Link Results at 15:00:00 hrs:
  ------------------------------------
                       Flow     State
  Link                 m3/h          
  ------------------------------------
  1                  168.44      open
  2                   77.60      open
  3                  758.10      open
  4                  103.73      open
  5                   63.93      open
  6                  545.37      open
  7                  245.61      open
  8                 1017.37      open
   
   
  Node Results at 15:30:00 hrs:
  ----------------------------------------------
                     Demand      Head  Pressure
  Node                 m3/h         m         m
  ----------------------------------------------
  1                   90.16    192.79     32.79
  2                   90.16    203.98     53.98
  3                  243.44    181.97     31.97
  4                  108.20    200.48     45.48
  5                  180.33    189.53     29.53
  6                  297.54    197.11     32.11
  7                -1009.85    210.00      0.00  Reservoir
   
   
  Link Results at 15:30:00 hrs:
  ------------------------------------
                       Flow     State
  Link                 m3/h          
  ------------------------------------
  1                  167.19      open
  2                   77.03      open
  3                  752.49      open
  4                  102.96      open
  5                   63.46      open
  6                  541.33      open
  7                  243.79      open
  8                 1009.85      open
   
   
  Node Results at 16:00:00 hrs:
  ----------------------------------------------
                     Demand      Head  Pressure
  Node                 m3/h         m         m
  ----------------------------------------------
  1                   85.21    194.50     34.50
  2                   85.21    204.58     54.58
  3                  230.06    184.76     34.76
  4                  102.25    201.43     46.43
  5                  170.41    191.56     31.56
  6                  281.18    198.40     33.40
  7                 -954.31    210.00      0.00  Reservoir
   
   
  Link Results at 16:00:00 hrs:
  ------------------------------------
                       Flow     State
  Link                 m3/h          
  ------------------------------------
  1                  158.00      open
  2                   72.79      open
  3                  711.11      open
  4                   97.30      open
  5                   59.97      open
  6                  511.56      open
  7                  230.38      open
  8                  954.31      open
   
   
  Node Results at 16:30:00 hrs:
  ----------------------------------------------
                     Demand      Head  Pressure
  Node                 m3/h         m         m
  ----------------------------------------------
  1                   83.24    195.15     35.15
  2                   83.24    204.80     54.80
  3                  224.76    185.82     35.82
  4                   99.89    201.79     46.79
  5                  166.49    192.34     32.34
  6                  274.71    198.89     33.89
  7                 -932.34    210.00      0.00  Reservoir
   
   
  Link Results at 16:30:00 hrs:
  ------------------------------------
                       Flow     State
  Link                 m3/h          
  ------------------------------------
  1                  154.36      open
  2                   71.11      open
  3                  694.74      open
  4                   95.06      open
  5                   58.59      open
  6                  499.79      open
  7                  225.08      open
  8                  932.34      open
   
   
  Node Results at 17:00:00 hrs:
  ----------------------------------------------
                     Demand      Head  Pressure
  Node                 m3/h         m         m
  ----------------------------------------------
  1                   97.91    189.95     29.95
  2                   97.91    202.98     52.98
  3                  264.36    177.35     27.35
  4                  117.50    198.91     43.91
  5                  195.83    186.15     26.15
  6                  323.11    194.99     29.99
  7                -1096.62    210.00      0.00  Reservoir
   
   
  Link Results at 17:00:00 hrs:
  ------------------------------------
                       Flow     State
  Link                 m3/h          
  ------------------------------------
  1                  181.56      open
  2                   83.64      open
  3                  817.15      open
  4                  111.81      open
  5                   68.91      open
  6                  587.85      open
  7                  264.74      open
  8                 1096.62      open
   
   
  Node Results at 17:30:00 hrs:
  ----------------------------------------------
                     Demand      Head  Pressure
  Node                 m3/h         m         m
  ----------------------------------------------
  1                  106.18    186.70     26.70
  2                  106.18    201.85     51.85
  3                  286.70    172.06     22.06
  4                  127.42    197.12     42.12
  5                  212.37    182.28     22.28
  6                  350.41    192.56     27.56
  7                -1189.25    210.00      0.00  Reservoir
   
   
  Link Results at 17:30:00 hrs:
  ------------------------------------
                       Flow     State
  Link                 m3/h          
  ------------------------------------
  1                  196.89      open
  2                   90.71      open
  3                  886.18      open
  4                  121.25      open
  5                   74.73      open
  6                  637.51      open
  7                  287.10      open
  8                 1189.25      open
   
   
  Node Results at 18:00:00 hrs:
  ----------------------------------------------
                     Demand      Head  Pressure
  Node                 m3/h         m         m
  ----------------------------------------------
  1                  118.12    181.62     21.62
  2                  118.12    200.07     50.07
  3                  318.92    163.78     13.78
  4                  141.74    194.31     39.31
  5                  236.24    176.24     16.24
  6                  389.80    188.75     23.75
  7                -1322.94    210.00      0.00  Reservoir
   
   
  Link Results at 18:00:00 hrs:
  ------------------------------------
                       Flow     State
  Link                 m3/h          
  ------------------------------------
  1                  219.03      open
  2                  100.91      open
  3                  985.80      open
  4                  134.88      open
  5                   83.14      open
  6                  709.17      open
  7                  319.38      open
  8                 1322.94      open
   
   
  Node Results at 18:30:00 hrs:
  ----------------------------------------------
                     Demand      Head  Pressure
  Node                 m3/h         m         m
  ----------------------------------------------
  1                  123.02    179.40     19.40
  2                  123.02    199.29     49.29
  3                  332.15    160.17     10.17
  4                  147.62    193.08     38.08
  5                  246.04    173.60     13.60
  6                  405.96    187.09     22.09
  7                -1377.82    210.00      0.00  Reservoir
   
   
  Link Results at 18:30:00 hrs:
  ------------------------------------
                       Flow     State
  Link                 m3/h          
  ------------------------------------
  1                  228.11      open
  2                  105.09      open
  3                 1026.69      open
  4                  140.48      open
  5                   86.58      open
  6                  738.59      open
  7                  332.62      open
  8                 1377.82      open
   
   
  Node Results at 19:00:00 hrs:
  ----------------------------------------------
                     Demand      Head  Pressure
  Node                 m3/h         m         m
  ----------------------------------------------
  1                  117.21    182.02     22.02
  2                  117.21    200.21     50.21
  3                  316.47    164.44     14.44
  4                  140.65    194.53     39.53
  5                  234.42    176.72     16.72
  6                  386.80    189.05     24.05
  7                -1312.77    210.00      0.00  Reservoir
   
   
  Link Results at 19:00:00 hrs:
  ------------------------------------
                       Flow     State
  Link                 m3/h          
  ------------------------------------
  1                  217.34      open
  2                  100.13      open
  3                  978.21      open
  4                  133.84      open
  5                   82.50      open
  6                  703.72      open
  7                  316.92      open
  8                 1312.77      open
   
   
  Node Results at 19:30:00 hrs:
  ----------------------------------------------
                     Demand      Head  Pressure
  Node                 m3/h         m         m
  ----------------------------------------------
  1                  123.55    179.15     19.15
  2                  123.55    199.21     49.20
  3                  333.60    159.77      9.77
  4                  148.27    192.94     37.94
  5                  247.11    173.31     13.31
  6                  407.73    186.91     21.91
  7                -1383.81    210.00      0.00  Reservoir
   
   
  Link Results at 19:30:00 hrs:
  ------------------------------------
                       Flow     State
  Link                 m3/h          
  ------------------------------------
  1                  229.10      open
  2                  105.55      open
  3                 1031.15      open
  4                  141.09      open
  5                   86.96      open
  6                  741.80      open
  7                  334.07      open
  8                 1383.81      open
   
   
  Node Results at 20:00:00 hrs:
  ----------------------------------------------
                     Demand      Head  Pressure
  Node                 m3/h         m         m
  ----------------------------------------------
  1                  121.82    179.95     19.95
  2                  121.82    199.48     49.48
  3                  328.92    161.06     11.06
  4                  146.19    193.38     38.38
  5                  243.64    174.25     14.25
  6                  402.01    187.50     22.50
  7                -1364.40    210.00      0.00  Reservoir
   
   
  Link Results at 20:00:00 hrs:
  ------------------------------------
                       Flow     State
  Link                 m3/h          
  ------------------------------------
  1                  225.89      open
  2                  104.07      open
  3                 1016.69      open
  4                  139.11      open
  5                   85.74      open
  6                  731.39      open
  7                  329.38      open
  8                 1364.40      open
   
   
  Node Results at 20:30:00 hrs:
  ----------------------------------------------
                     Demand      Head  Pressure
  Node                 m3/h         m         m
  ----------------------------------------------
  1                  119.53    180.99     20.99
  2                  119.53    199.85     49.85
  3                  322.72    162.76     12.76
  4                  143.43    193.96     38.96
  5                  239.05    175.49     15.49
  6                  394.44    188.28     23.28
  7                -1338.71    210.00      0.00  Reservoir
   
   
  Link Results at 20:30:00 hrs:
  ------------------------------------
                       Flow     State
  Link                 m3/h          
  ------------------------------------
  1                  221.64      open
  2                  102.11      open
  3                  997.54      open
  4                  136.49      open
  5                   84.13      open
  6                  717.62      open
  7                  323.18      open
  8                 1338.71      open
   
   
  Node Results at 21:00:00 hrs:
  ----------------------------------------------
                     Demand      Head  Pressure
  Node                 m3/h         m         m
  ----------------------------------------------
  1                  116.69    182.25     22.25
  2                  116.69    200.29     50.29
  3                  315.07    164.81     14.81
  4                  140.03    194.66     39.66
  5                  233.38    176.99     16.99
  6                  385.08    189.23     24.23
  7                -1306.94    210.00      0.00  Reservoir
   
   
  Link Results at 21:00:00 hrs:
  ------------------------------------
                       Flow     State
  Link                 m3/h          
  ------------------------------------
  1                  216.38      open
  2                   99.69      open
  3                  973.87      open
  4                  133.25      open
  5                   82.13      open
  6                  700.59      open
  7                  315.51      open
  8                 1306.94      open
   
   
  Node Results at 21:30:00 hrs:
  ----------------------------------------------
                     Demand      Head  Pressure
  Node                 m3/h         m         m
  ----------------------------------------------
  1                  145.52    171.38     11.38
  2                  145.52    196.12     46.12
  3                  348.25    150.08      0.08
  4                  174.63    188.04     33.04
  5                  291.05    163.19      3.19
  6                  480.23    180.16     15.16
  7                -1585.19    210.00      0.00  Reservoir
   
   
  Link Results at 21:30:00 hrs:
  ------------------------------------
                       Flow     State
  Link                 m3/h          
  ------------------------------------
  1                  256.59      open
  2                  111.07      open
  3                 1183.08      open
  4                  151.73      open
  5                   85.45      open
  6                  856.72      open
  7                  376.50      open
  8                 1585.19      open
   
   
  Node Results at 22:00:00 hrs:
  ----------------------------------------------
                     Demand      Head  Pressure
  Node                 m3/h         m         m
  ----------------------------------------------
  1                  126.02    178.00     18.00
  2                  126.02    198.80     48.80
  3                  340.27    157.89      7.89
  4                  151.23    192.31     37.31
  5                  252.05    171.94     11.94
  6                  415.88    186.04     21.04
  7                -1411.48    210.00      0.00  Reservoir
   
   
  Link Results at 22:00:00 hrs:
  ------------------------------------
                       Flow     State
  Link                 m3/h          
  ------------------------------------
  1                  233.68      open
  2                  107.66      open
  3                 1051.77      open
  4                  143.91      open
  5                   88.70      open
  6                  756.63      open
  7                  340.75      open
  8                 1411.48      open
   
   
  Node Results at 22:30:00 hrs:
  ----------------------------------------------
                     Demand      Head  Pressure
  Node                 m3/h         m         m
  ----------------------------------------------
  1                  123.65    179.10     19.10
  2                  123.65    199.19     49.19
  3                  333.87    159.69      9.69
  4                  148.38    192.92     37.92
  5                  247.31    173.25     13.25
  6                  408.06    186.87     21.87
  7                -1384.92    210.00      0.00  Reservoir
   
   
  Link Results at 22:30:00 hrs:
  ------------------------------------
                       Flow     State
  Link                 m3/h          
  ------------------------------------
  1                  229.29      open
  2                  105.63      open
  3                 1031.98      open
  4                  141.20      open
  5                   87.03      open
  6                  742.40      open
  7                  334.34      open
  8                 1384.92      open
   
   
  Node Results at 23:00:00 hrs:
  ----------------------------------------------
                     Demand      Head  Pressure
  Node                 m3/h         m         m
  ----------------------------------------------
  1                  110.98    184.71     24.71
  2                  110.98    201.15     51.15
  3                  299.65    168.82     18.82
  4                  133.18    196.02     41.02
  5                  221.96    179.92     19.92
  6                  366.23    191.07     26.07
  7                -1242.98    210.00      0.00  Reservoir
   
   
  Link Results at 23:00:00 hrs:
  ------------------------------------
                       Flow     State
  Link                 m3/h          
  ------------------------------------
  1                  205.79      open
  2                   94.81      open
  3                  926.21      open
  4                  126.73      open
  5                   78.11      open
  6                  666.30      open
  7                  300.07      open
  8                 1242.98      open
   
   
  Node Results at 23:30:00 hrs:
  ----------------------------------------------
                     Demand      Head  Pressure
  Node                 m3/h         m         m
  ----------------------------------------------
  1                  113.05    183.83     23.83
  2                  113.05    200.84     50.84
  3                  305.23    167.39     17.39
  4                  135.66    195.53     40.53
  5                  226.09    178.88     18.88
  6                  373.05    190.41     25.41
  7                -1266.12    210.00      0.00  Reservoir
   
   
  Link Results at 23:30:00 hrs:
  ------------------------------------
                       Flow     State
  Link                 m3/h          
  ------------------------------------
  1                  209.62      open
  2                   96.57      open
  3                  943.46      open
  4                  129.09      open
  5                   79.57      open
  6                  678.71      open
  7                  305.66      open
  8                 1266.12      open
   
   
  Node Results at 24:00:00 hrs:
  ----------------------------------------------
                     Demand      Head  Pressure
  Node                 m3/h         m         m
  ----------------------------------------------
  1                   81.29    195.79     35.79
  2                   81.29    205.03     55.03
  3                  219.47    186.87     36.87
  4                   97.54    202.15     47.15
  5                  162.57    193.10     33.10
  6                  268.24    199.37     34.37
  7                 -910.39    210.00      0.00  Reservoir
   
   
  Link Results at 24:00:00 hrs:
  ------------------------------------
                       Flow     State
  Link                 m3/h          
  ------------------------------------
  1                  150.73      open
  2                   69.44      open
  3                  678.38      open
  4                   92.82      open
  5                   57.21      open
  6                  488.02      open
  7                  219.78      open
  8                  910.39      open
   
   
  Node Results at 24:30:00 hrs:
  ----------------------------------------------
                     Demand      Head  Pressure
  Node                 m3/h         m         m
  ----------------------------------------------
  1                   70.19    199.18     39.18
  2                   70.19    206.21     56.21
  3                  189.50    192.38     42.38
  4                   84.22    204.02     49.02
  5                  140.37    197.13     37.13
  6                  231.61    201.90     36.90
  7                 -786.08    210.00      0.00  Reservoir
   
   
  Link Results at 24:30:00 hrs:
  ------------------------------------
                       Flow     State
  Link                 m3/h          
  ------------------------------------
  1                  130.14      open
  2                   59.96      open
  3                  585.75      open
  4                   80.14      open
  5                   49.40      open
  6                  421.38      open
  7                  189.77      open
  8                  786.08      open
   
   
  Node Results at 25:00:00 hrs:
  ----------------------------------------------
                     Demand      Head  Pressure
  Node                 m3/h         m         m
  ----------------------------------------------
  1                   56.78    202.69     42.69
  2                   56.78    207.44     57.44
  3                  153.30    198.10     48.10
  4                   68.13    205.96     50.96
  5                  113.55    201.31     41.31
  6                  187.36    204.53     39.53
  7                 -635.90    210.00      0.00  Reservoir
   
   
  Link Results at 25:00:00 hrs:
  ------------------------------------
                       Flow     State
  Link                 m3/h          
  ------------------------------------
  1                  105.28      open
  2                   48.50      open
  3                  473.84      open
  4                   64.83      open
  5                   39.96      open
  6                  340.88      open
  7                  153.51      open
  8                  635.90      open
   
   
  Node Results at 25:30:00 hrs:
  ----------------------------------------------
                     Demand      Head  Pressure
  Node                 m3/h         m         m
  ----------------------------------------------
  1                   55.16    203.07     43.07
  2                   55.16    207.58     57.58
  3                  148.93    198.72     48.72
  4                   66.19    206.17     51.17
  5                  110.32    201.76     41.76
  6                  182.02    204.81     39.81
  7                 -617.77    210.00      0.00  Reservoir
   
   
  Link Results at 25:30:00 hrs:
  ------------------------------------
                       Flow     State
  Link                 m3/h          
  ------------------------------------
  1                  102.28      open
  2                   47.12      open
  3                  460.34      open
  4                   62.98      open
  5                   38.82      open
  6                  331.16      open
  7                  149.14      open
  8                  617.77      open
   
   
  Node Results at 26:00:00 hrs:
  ----------------------------------------------
                     Demand      Head  Pressure
  Node                 m3/h         m         m
  ----------------------------------------------
  1                   48.47    204.55     44.55
  2                   48.47    208.09     58.09
  3                  130.86    201.12     51.12
  4                   58.16    206.99     51.99
  5                   96.94    203.51     43.51
  6                  159.94    205.92     40.92
  7                 -542.84    210.00      0.00  Reservoir
   
   
  Link Results at 26:00:00 hrs:
  ------------------------------------
                       Flow     State
  Link                 m3/h          
  ------------------------------------
  1                   89.87      open
  2                   41.40      open
  3                  404.50      open
  4                   55.34      open
  5                   34.11      open
  6                  290.99      open
  7                  131.05      open
  8                  542.84      open
   
   
  Node Results at 26:30:00 hrs:
  ----------------------------------------------
                     Demand      Head  Pressure
  Node                 m3/h         m         m
  ----------------------------------------------
  1                   42.54    205.72     45.72
  2                   42.54    208.50     58.50
  3                  114.85    203.03     53.03
  4                   51.04    207.63     52.63
  5                   85.07    204.91     44.91
  6                  140.37    206.79     41.79
  7                 -476.41    210.00      0.00  Reservoir
   
   
  Link Results at 26:30:00 hrs:
  ------------------------------------
                       Flow     State
  Link                 m3/h          
  ------------------------------------
  1                   78.87      open
  2                   36.34      open
  3                  355.00      open
  4                   48.57      open
  5                   29.94      open
  6                  255.38      open
  7                  115.01      open
  8                  476.41      open
   
   
  Node Results at 27:00:00 hrs:
  ----------------------------------------------
                     Demand      Head  Pressure
  Node                 m3/h         m         m
  ----------------------------------------------
  1                   39.93    206.19     46.19
  2                   39.93    208.67     58.67
  3                  107.82    203.80     53.80
  4                   47.92    207.89     52.89
  5                   79.86    205.47     45.47
  6                  131.78    207.15     42.15
  7                 -447.24    210.00      0.00  Reservoir
   
   
  Link Results at 27:00:00 hrs:
  ------------------------------------
                       Flow     State
  Link                 m3/h          
  ------------------------------------
  1                   74.05      open
  2                   34.11      open
  3                  333.27      open
  4                   45.60      open
  5                   28.11      open
  6                  239.75      open
  7                  107.97      open
  8                  447.24      open
   
   
  Node Results at 27:30:00 hrs:
  ----------------------------------------------
                     Demand      Head  Pressure
  Node                 m3/h         m         m
  ----------------------------------------------
  1                   33.82    207.20     47.20
  2                   33.82    209.02     59.02
  3                   91.32    205.44     55.44
  4                   40.59    208.45     53.45
  5                   67.65    206.67     46.67
  6                  111.61    207.90     42.90
  7                 -378.81    210.00      0.00  Reservoir
   
   
  Link Results at 27:30:00 hrs:
  ------------------------------------
                       Flow     State
  Link                 m3/h          
  ------------------------------------
  1                   62.72      open
  2                   28.89      open
  3                  282.27      open
  4                   38.62      open
  5                   23.80      open
  6                  203.06      open
  7                   91.45      open
  8                  378.81      open
   
   
  Node Results at 28:00:00 hrs:
  ----------------------------------------------
                     Demand      Head  Pressure
  Node                 m3/h         m         m
  ----------------------------------------------
  1                   30.12    207.74     47.74
  2                   30.12    209.21     59.21
  3                   81.32    206.32     56.32
  4                   36.14    208.75     53.75
  5                   60.24    207.31     47.31
  6                   99.40    208.31     43.31
  7                 -337.34    210.00      0.00  Reservoir
   
   
  Link Results at 28:00:00 hrs:
  ------------------------------------
                       Flow     State
  Link                 m3/h          
  ------------------------------------
  1                   55.85      open
  2                   25.73      open
  3                  251.37      open
  4                   34.39      open
  5                   21.20      open
  6                  180.83      open
  7                   81.44      open
  8                  337.34      open
   
   
  Node Results at 28:30:00 hrs:
  ----------------------------------------------
                     Demand      Head  Pressure
  Node                 m3/h         m         m
  ----------------------------------------------
  1                   35.45    206.94     46.94
  2                   35.45    208.93     58.93
  3                   95.72    205.02     55.02
  4                   42.54    208.31     53.31
  5                   70.90    206.37     46.37
  6                  116.99    207.71     42.71
  7                 -397.06    210.00      0.00  Reservoir
   
   
  Link Results at 28:30:00 hrs:
  ------------------------------------
                       Flow     State
  Link                 m3/h          
  ------------------------------------
  1                   65.74      open
  2                   30.29      open
  3                  295.87      open
  4                   40.48      open
  5                   24.95      open
  6                  212.85      open
  7                   95.86      open
  8                  397.06      open
   
   
  Node Results at 29:00:00 hrs:
  ----------------------------------------------
                     Demand      Head  Pressure
  Node                 m3/h         m         m
  ----------------------------------------------
  1                   38.48    206.44     46.44
  2                   38.48    208.76     58.76
  3                  103.89    204.21     54.21
  4                   46.17    208.03     53.03
  5                   76.96    205.77     45.77
  6                  126.98    207.34     42.34
  7                 -430.95    210.00      0.00  Reservoir
   
   
  Link Results at 29:00:00 hrs:
  ------------------------------------
                       Flow     State
  Link                 m3/h          
  ------------------------------------
  1                   71.35      open
  2                   32.87      open
  3                  321.12      open
  4                   43.94      open
  5                   27.08      open
  6                  231.01      open
  7                  104.04      open
  8                  430.95      open
   
   
  Node Results at 29:30:00 hrs:
  ----------------------------------------------
                     Demand      Head  Pressure
  Node                 m3/h         m         m
  ----------------------------------------------
  1                   39.37    206.29     46.29
  2                   39.37    208.70     58.70
  3                  106.29    203.96     53.96
  4                   47.24    207.95     52.95
  5                   78.74    205.59     45.59
  6                  129.92    207.22     42.22
  7                 -440.93    210.00      0.00  Reservoir
   
   
  Link Results at 29:30:00 hrs:
  ------------------------------------
                       Flow     State
  Link                 m3/h          
  ------------------------------------
  1                   73.00      open
  2                   33.63      open
  3                  328.56      open
  4                   44.95      open
  5                   27.71      open
  6                  236.36      open
  7                  106.45      open
  8                  440.93      open
   
   
  Node Results at 30:00:00 hrs:
  ----------------------------------------------
                     Demand      Head  Pressure
  Node                 m3/h         m         m
  ----------------------------------------------
  1                   47.98    204.65     44.65
  2                   47.98    208.13     58.13
  3                  129.55    201.29     51.29
  4                   57.58    207.04     52.04
  5                   95.97    203.63     43.63
  6                  158.34    205.99     40.99
  7                 -537.41    210.00      0.00  Reservoir
   
   
  Link Results at 30:00:00 hrs:
  ------------------------------------
                       Flow     State
  Link                 m3/h          
  ------------------------------------
  1                   88.97      open
  2                   40.99      open
  3                  400.45      open
  4                   54.79      open
  5                   33.77      open
  6                  288.08      open
  7                  129.74      open
  8                  537.41      open
   
   
  Node Results at 30:30:00 hrs:
  ----------------------------------------------
                     Demand      Head  Pressure
  Node                 m3/h         m         m
  ----------------------------------------------
  1                   79.94    196.23     36.23
  2                   79.94    205.18     55.18
  3                  215.84    187.57     37.57
  4                   95.93    202.38     47.38
  5                  159.88    193.62     33.62
  6                  263.80    199.69     34.69
  7                 -895.33    210.00      0.00  Reservoir
   
   
  Link Results at 30:30:00 hrs:
  ------------------------------------
                       Flow     State
  Link                 m3/h          
  ------------------------------------
  1                  148.23      open
  2                   68.29      open
  3                  667.16      open
  4                   91.28      open
  5                   56.26      open
  6                  479.95      open
  7                  216.15      open
  8                  895.33      open
   
   
  Node Results at 31:00:00 hrs:
  ----------------------------------------------
                     Demand      Head  Pressure
  Node                 m3/h         m         m
  ----------------------------------------------
  1                  114.15    183.36     23.36
  2                  114.15    200.68     50.68
  3                  308.19    166.62     16.62
  4                  136.97    195.27     40.27
  5                  228.29    178.31     18.31
  6                  376.68    190.06     25.06
  7                -1278.43    210.00      0.00  Reservoir
   
   
  Link Results at 31:00:00 hrs:
  ------------------------------------
                       Flow     State
  Link                 m3/h          
  ------------------------------------
  1                  211.66      open
  2                   97.51      open
  3                  952.63      open
  4                  130.34      open
  5                   80.34      open
  6                  685.31      open
  7                  308.63      open
  8                 1278.43      open
   
   
  Node Results at 31:30:00 hrs:
  ----------------------------------------------
                     Demand      Head  Pressure
  Node                 m3/h         m         m
  ----------------------------------------------
  1                  131.50    175.38     15.38
  2                  131.50    197.88     47.88
  3                  355.05    153.62      3.62
  4                  157.80    190.86     35.86
  5                  263.00    168.82      8.82
  6                  433.95    184.08     19.08
  7                -1472.79    210.00      0.00  Reservoir
   
   
  Link Results at 31:30:00 hrs:
  ------------------------------------
                       Flow     State
  Link                 m3/h          
  ------------------------------------
  1                  243.84      open
  2                  112.34      open
  3                 1097.46      open
  4                  150.16      open
  5                   92.55      open
  6                  789.50      open
  7                  355.55      open
  8                 1472.79      open
   
   
  Node Results at 32:00:00 hrs:
  ----------------------------------------------
                     Demand      Head  Pressure
  Node                 m3/h         m         m
  ----------------------------------------------
  1                  161.70    168.48      8.48
  2                  161.70    194.62     44.62
  3                  323.29    150.05      0.05
  4                  194.04    185.69     30.69
  5                  300.75    160.09      0.09
  6                  533.62    176.91     11.91
  7                -1675.11    210.00      0.00  Reservoir
   
   
  Link Results at 32:00:00 hrs:
  ------------------------------------
                       Flow     State
  Link                 m3/h          
  ------------------------------------
  1                  264.39      open
  2                  102.68      open
  3                 1249.02      open
  4                  146.64      open
  5                   73.96      open
  6                  908.33      open
  7                  374.71      open
  8                 1675.11      open
   
   
  Node Results at 32:30:00 hrs:
  ----------------------------------------------
                     Demand      Head  Pressure
  Node                 m3/h         m         m
  ----------------------------------------------
  1                  158.85    168.94      8.94
  2                  158.85    194.82     44.82
  3                  325.36    150.06      0.06
  4                  190.62    186.00     31.00
  5                  305.32    160.09      0.09
  6                  524.20    177.30     12.30
  7                -1663.20    210.00      0.00  Reservoir
   
   
  Link Results at 32:30:00 hrs:
  ------------------------------------
                       Flow     State
  Link                 m3/h          
  ------------------------------------
  1                  262.93      open
  2                  104.08      open
  3                 1241.42      open
  4                  147.31      open
  5                   73.97      open
  6                  903.50      open
  7                  379.29      open
  8                 1663.20      open
   
   
  Node Results at 33:00:00 hrs:
  ----------------------------------------------
                     Demand      Head  Pressure
  Node                 m3/h         m         m
  ----------------------------------------------
  1                  144.35    171.60     11.60
  2                  144.35    196.24     46.24
  3                  350.58    150.08      0.08
  4                  173.22    188.24     33.24
  5                  288.70    163.56      3.56
  6                  476.36    180.44     15.44
  7                -1577.55    210.00      0.00  Reservoir
   
   
  Link Results at 33:00:00 hrs:
  ------------------------------------
                       Flow     State
  Link                 m3/h          
  ------------------------------------
  1                  256.03      open
  2                  111.68      open
  3                 1177.17      open
  4                  152.15      open
  5                   86.74      open
  6                  851.80      open
  7                  375.44      open
  8                 1577.55      open
   
   
  Node Results at 33:30:00 hrs:
  ----------------------------------------------
                     Demand      Head  Pressure
  Node                 m3/h         m         m
  ----------------------------------------------
  1                  160.29    168.71      8.71
  2                  160.29    194.72     44.72
  3                  324.31    150.06      0.06
  4                  192.35    185.84     30.84
  5                  303.02    160.09      0.09
  6                  528.97    177.10     12.10
  7                -1669.24    210.00      0.00  Reservoir
   
   
  Link Results at 33:30:00 hrs:
  ------------------------------------
                       Flow     State
  Link                 m3/h          
  ------------------------------------
  1                  263.67      open
  2                  103.38      open
  3                 1245.28      open
  4                  146.97      open
  5                   73.96      open
  6                  905.95      open
  7                  376.98      open
  8                 1669.24      open
   
   
  Node Results at 34:00:00 hrs:
  ----------------------------------------------
                     Demand      Head  Pressure
  Node                 m3/h         m         m
  ----------------------------------------------
  1                  141.83    172.08     12.08
  2                  141.83    196.50     46.50
  3                  355.50    150.09      0.09
  4                  170.20    188.66     33.66
  5                  283.67    164.35      4.35
  6                  468.05    181.04     16.04
  7                -1561.10    210.00      0.00  Reservoir
   
   
  Link Results at 34:00:00 hrs:
  ------------------------------------
                       Flow     State
  Link                 m3/h          
  ------------------------------------
  1                  254.84      open
  2                  113.00      open
  3                 1164.43      open
  4                  153.05      open
  5                   89.45      open
  6                  841.17      open
  7                  373.12      open
  8                 1561.10      open
   
   
  Node Results at 34:30:00 hrs:
  ----------------------------------------------
                     Demand      Head  Pressure
  Node                 m3/h         m         m
  ----------------------------------------------
  1                  141.31    172.18     12.18
  2                  141.31    196.56     46.56
  3                  356.52    150.09      0.09
  4                  169.58    188.75     33.75
  5                  282.63    164.52      4.52
  6                  466.33    181.17     16.17
  7                -1557.68    210.00      0.00  Reservoir
   
   
  Link Results at 34:30:00 hrs:
  ------------------------------------
                       Flow     State
  Link                 m3/h          
  ------------------------------------
  1                  254.59      open
  2                  113.27      open
  3                 1161.78      open
  4                  153.24      open
  5                   90.00      open
  6                  838.96      open
  7                  372.63      open
  8                 1557.68      open
   
   
  Node Results at 35:00:00 hrs:
  ----------------------------------------------
                     Demand      Head  Pressure
  Node                 m3/h         m         m
  ----------------------------------------------
  1                  135.69    173.31     13.31
  2                  135.69    197.16     47.16
  3                  366.35    150.25      0.25
  4                  162.82    189.71     34.71
  5                  271.37    166.36      6.36
  6                  447.77    182.53     17.53
  7                -1519.69    210.00      0.00  Reservoir
   
   
  Link Results at 35:00:00 hrs:
  ------------------------------------
                       Flow     State
  Link                 m3/h          
  ------------------------------------
  1                  251.60      open
  2                  115.91      open
  3                 1132.41      open
  4                  154.94      open
  5                   95.50      open
  6                  814.64      open
  7                  366.87      open
  8                 1519.69      open
   
   
  Node Results at 35:30:00 hrs:
  ----------------------------------------------
                     Demand      Head  Pressure
  Node                 m3/h         m         m
  ----------------------------------------------
  1                  120.21    180.68     20.68
  2                  120.21    199.74     49.74
  3                  324.58    162.25     12.25
  4                  144.26    193.79     38.79
  5                  240.43    175.12     15.12
  6                  396.71    188.05     23.05
  7                -1346.39    210.00      0.00  Reservoir
   
   
  Link Results at 35:30:00 hrs:
  ------------------------------------
                       Flow     State
  Link                 m3/h          
  ------------------------------------
  1                  222.91      open
  2                  102.70      open
  3                 1003.27      open
  4                  137.27      open
  5                   84.61      open
  6                  721.74      open
  7                  325.04      open
  8                 1346.39      open
   
   
  Node Results at 36:00:00 hrs:
  ----------------------------------------------
                     Demand      Head  Pressure
  Node                 m3/h         m         m
  ----------------------------------------------
  1                  117.52    181.88     21.88
  2                  117.52    200.16     50.16
  3                  317.30    164.22     14.22
  4                  141.02    194.45     39.45
  5                  235.04    176.56     16.56
  6                  387.82    188.95     23.95
  7                -1316.22    210.00      0.00  Reservoir
   
   
  Link Results at 36:00:00 hrs:
  ------------------------------------
                       Flow     State
  Link                 m3/h          
  ------------------------------------
  1                  217.91      open
  2                  100.39      open
  3                  980.79      open
  4                  134.20      open
  5                   82.71      open
  6                  705.57      open
  7                  317.75      open
  8                 1316.22      open
   
   
  Node Results at 36:30:00 hrs:
  ----------------------------------------------
                     Demand      Head  Pressure
  Node                 m3/h         m         m
  ----------------------------------------------
  1                   95.57    190.83     30.83
  2                   95.57    203.29     53.29
  3                  258.03    178.78     28.78
  4                  114.68    199.40     44.40
  5                  191.13    187.20     27.20
  6                  315.37    195.65     30.65
  7                -1070.35    210.00      0.00  Reservoir
   
   
  Link Results at 36:30:00 hrs:
  ------------------------------------
                       Flow     State
  Link                 m3/h          
[...]
   
  Link Results at 663:00:00 hrs:
  ------------------------------------
                       Flow     State
  Link                 m3/h          
  ------------------------------------
  1                  179.99      open
  2                   82.92      open
  3                  810.09      open
  4                  110.84      open
  5                   68.32      open
  6                  582.77      open
  7                  262.45      open
  8                 1087.15      open
   
   
  Node Results at 663:30:00 hrs:
  ----------------------------------------------
                     Demand      Head  Pressure
  Node                 m3/h         m         m
  ----------------------------------------------
  1                   88.03    193.54     33.54
  2                   88.03    204.24     54.24
  3                  237.68    183.19     33.19
  4                  105.63    200.90     45.90
  5                  176.06    190.42     30.42
  6                  290.49    197.67     32.67
  7                 -985.91    210.00      0.00  Reservoir
   
   
  Link Results at 663:30:00 hrs:
  ------------------------------------
                       Flow     State
  Link                 m3/h          
  ------------------------------------
  1                  163.23      open
  2                   75.20      open
  3                  734.66      open
  4                  100.52      open
  5                   61.96      open
  6                  528.50      open
  7                  238.01      open
  8                  985.91      open
   
   
  Node Results at 664:00:00 hrs:
  ----------------------------------------------
                     Demand      Head  Pressure
  Node                 m3/h         m         m
  ----------------------------------------------
  1                   96.18    190.60     30.60
  2                   96.18    203.21     53.21
  3                  259.70    178.41     28.41
  4                  115.42    199.27     44.27
  5                  192.37    186.92     26.92
  6                  317.41    195.48     30.48
  7                -1077.27    210.00      0.00  Reservoir
   
   
  Link Results at 664:00:00 hrs:
  ------------------------------------
                       Flow     State
  Link                 m3/h          
  ------------------------------------
  1                  178.35      open
  2                   82.17      open
  3                  802.73      open
  4                  109.83      open
  5                   67.70      open
  6                  577.47      open
  7                  260.07      open
  8                 1077.27      open
   
   
  Node Results at 664:30:00 hrs:
  ----------------------------------------------
                     Demand      Head  Pressure
  Node                 m3/h         m         m
  ----------------------------------------------
  1                   96.44    190.50     30.50
  2                   96.44    203.18     53.18
  3                  260.38    178.25     28.25
  4                  115.72    199.22     44.22
  5                  192.87    186.81     26.81
  6                  318.24    195.41     30.41
  7                -1080.09    210.00      0.00  Reservoir
   
   
  Link Results at 664:30:00 hrs:
  ------------------------------------
                       Flow     State
  Link                 m3/h          
  ------------------------------------
  1                  178.82      open
  2                   82.38      open
  3                  804.83      open
  4                  110.12      open
  5                   67.87      open
  6                  578.99      open
  7                  260.75      open
  8                 1080.09      open
   
   
  Node Results at 665:00:00 hrs:
  ----------------------------------------------
                     Demand      Head  Pressure
  Node                 m3/h         m         m
  ----------------------------------------------
  1                  104.65    187.32     27.32
  2                  104.65    202.06     52.06
  3                  282.54    173.07     23.07
  4                  125.57    197.46     42.46
  5                  209.29    183.02     23.02
  6                  345.33    193.02     28.02
  7                -1172.02    210.00      0.00  Reservoir
   
   
  Link Results at 665:00:00 hrs:
  ------------------------------------
                       Flow     State
  Link                 m3/h          
  ------------------------------------
  1                  194.04      open
  2                   89.40      open
  3                  873.34      open
  4                  119.49      open
  5                   73.65      open
  6                  628.27      open
  7                  282.94      open
  8                 1172.02      open
   
   
  Node Results at 665:30:00 hrs:
  ----------------------------------------------
                     Demand      Head  Pressure
  Node                 m3/h         m         m
  ----------------------------------------------
  1                  100.31    189.03     29.03
  2                  100.31    202.66     52.66
  3                  270.83    175.85     25.85
  4                  120.37    198.41     43.41
  5                  200.62    185.06     25.06
  6                  331.02    194.30     29.30
  7                -1123.45    210.00      0.00  Reservoir
   
   
  Link Results at 665:30:00 hrs:
  ------------------------------------
                       Flow     State
  Link                 m3/h          
  ------------------------------------
  1                  186.00      open
  2                   85.69      open
  3                  837.15      open
  4                  114.54      open
  5                   70.60      open
  6                  602.23      open
  7                  271.22      open
  8                 1123.45      open
   
   
  Node Results at 666:00:00 hrs:
  ----------------------------------------------
                     Demand      Head  Pressure
  Node                 m3/h         m         m
  ----------------------------------------------
  1                  110.69    184.83     24.83
  2                  110.69    201.19     51.19
  3                  298.87    169.02     19.02
  4                  132.83    196.09     41.09
  5                  221.38    180.07     20.07
  6                  365.29    191.16     26.16
  7                -1239.76    210.00      0.00  Reservoir
   
   
  Link Results at 666:00:00 hrs:
  ------------------------------------
                       Flow     State
  Link                 m3/h          
  ------------------------------------
  1                  205.25      open
  2                   94.56      open
  3                  923.81      open
  4                  126.40      open
  5                   77.91      open
  6                  664.58      open
  7                  299.29      open
  8                 1239.76      open
   
   
  Node Results at 666:30:00 hrs:
  ----------------------------------------------
                     Demand      Head  Pressure
  Node                 m3/h         m         m
  ----------------------------------------------
  1                  115.66    182.70     22.70
  2                  115.66    200.45     50.45
  3                  312.29    165.55     15.55
  4                  138.80    194.91     39.91
  5                  231.33    177.53     17.53
  6                  381.69    189.56     24.56
  7                -1295.43    210.00      0.00  Reservoir
   
   
  Link Results at 666:30:00 hrs:
  ------------------------------------
                       Flow     State
  Link                 m3/h          
  ------------------------------------
  1                  214.47      open
  2                   98.81      open
  3                  965.30      open
  4                  132.08      open
  5                   81.41      open
  6                  694.42      open
  7                  312.73      open
  8                 1295.43      open
   
   
  Node Results at 667:00:00 hrs:
  ----------------------------------------------
                     Demand      Head  Pressure
  Node                 m3/h         m         m
  ----------------------------------------------
  1                  115.59    182.73     22.73
  2                  115.59    200.46     50.46
  3                  312.09    165.60     15.60
  4                  138.71    194.92     39.92
  5                  231.18    177.57     17.57
  6                  381.44    189.59     24.59
  7                -1294.60    210.00      0.00  Reservoir
   
   
  Link Results at 667:00:00 hrs:
  ------------------------------------
                       Flow     State
  Link                 m3/h          
  ------------------------------------
  1                  214.33      open
  2                   98.75      open
  3                  964.67      open
  4                  131.99      open
  5                   81.35      open
  6                  693.98      open
  7                  312.53      open
  8                 1294.60      open
   
   
  Node Results at 667:30:00 hrs:
  ----------------------------------------------
                     Demand      Head  Pressure
  Node                 m3/h         m         m
  ----------------------------------------------
  1                  119.62    180.94     20.94
  2                  119.62    199.83     49.83
  3                  322.99    162.69     12.69
  4                  143.55    193.94     38.94
  5                  239.25    175.44     15.44
  6                  394.76    188.25     23.25
  7                -1339.80    210.00      0.00  Reservoir
   
   
  Link Results at 667:30:00 hrs:
  ------------------------------------
                       Flow     State
  Link                 m3/h          
  ------------------------------------
  1                  221.82      open
  2                  102.19      open
  3                  998.35      open
  4                  136.60      open
  5                   84.20      open
  6                  718.21      open
  7                  323.44      open
  8                 1339.80      open
   
   
  Node Results at 668:00:00 hrs:
  ----------------------------------------------
                     Demand      Head  Pressure
  Node                 m3/h         m         m
  ----------------------------------------------
  1                  118.38    181.50     21.50
  2                  118.38    200.03     50.03
  3                  319.61    163.60     13.60
  4                  142.05    194.24     39.24
  5                  236.75    176.10     16.10
  6                  390.64    188.67     23.67
  7                -1325.81    210.00      0.00  Reservoir
   
   
  Link Results at 668:00:00 hrs:
  ------------------------------------
                       Flow     State
  Link                 m3/h          
  ------------------------------------
  1                  219.50      open
  2                  101.13      open
  3                  987.93      open
  4                  135.17      open
  5                   83.32      open
  6                  710.71      open
  7                  320.07      open
  8                 1325.81      open
   
   
  Node Results at 668:30:00 hrs:
  ----------------------------------------------
                     Demand      Head  Pressure
  Node                 m3/h         m         m
  ----------------------------------------------
  1                  142.39    171.98     11.98
  2                  142.39    196.45     46.45
  3                  354.43    150.08      0.08
  4                  170.87    188.57     33.57
  5                  284.78    164.18      4.18
  6                  469.88    180.91     15.91
  7                -1564.73    210.00      0.00  Reservoir
   
   
  Link Results at 668:30:00 hrs:
  ------------------------------------
                       Flow     State
  Link                 m3/h          
  ------------------------------------
  1                  255.10      open
  2                  112.71      open
  3                 1167.24      open
  4                  152.86      open
  5                   88.86      open
  6                  843.52      open
  7                  373.64      open
  8                 1564.73      open
   
   
  Node Results at 669:00:00 hrs:
  ----------------------------------------------
                     Demand      Head  Pressure
  Node                 m3/h         m         m
  ----------------------------------------------
  1                  122.42    179.68     19.68
  2                  122.42    199.39     49.39
  3                  330.52    160.62     10.62
  4                  146.90    193.23     38.23
  5                  244.83    173.93     13.93
  6                  403.97    187.30     22.30
  7                -1371.05    210.00      0.00  Reservoir
   
   
  Link Results at 669:00:00 hrs:
  ------------------------------------
                       Flow     State
  Link                 m3/h          
  ------------------------------------
  1                  226.99      open
  2                  104.58      open
  3                 1021.64      open
  4                  139.79      open
  5                   86.16      open
  6                  734.96      open
  7                  330.99      open
  8                 1371.05      open
   
   
  Node Results at 669:30:00 hrs:
  ----------------------------------------------
                     Demand      Head  Pressure
  Node                 m3/h         m         m
  ----------------------------------------------
  1                  140.80    172.28     12.28
  2                  140.80    196.61     46.61
  3                  357.51    150.09      0.09
  4                  168.96    188.84     33.84
  5                  281.59    164.68      4.68
  6                  464.63    181.29     16.29
  7                -1554.29    210.00      0.00  Reservoir
   
   
  Link Results at 669:30:00 hrs:
  ------------------------------------
                       Flow     State
  Link                 m3/h          
  ------------------------------------
  1                  254.34      open
  2                  113.54      open
  3                 1159.15      open
  4                  153.42      open
  5                   90.55      open
  6                  836.78      open
  7                  372.14      open
  8                 1554.29      open
   
   
  Node Results at 670:00:00 hrs:
  ----------------------------------------------
                     Demand      Head  Pressure
  Node                 m3/h         m         m
  ----------------------------------------------
  1                  126.35    177.84     17.84
  2                  126.35    198.75     48.75
  3                  341.15    157.64      7.64
  4                  151.62    192.22     37.22
  5                  252.71    171.75     11.75
  6                  416.97    185.93     20.93
  7                -1415.16    210.00      0.00  Reservoir
   
   
  Link Results at 670:00:00 hrs:
  ------------------------------------
                       Flow     State
  Link                 m3/h          
  ------------------------------------
  1                  234.29      open
  2                  107.94      open
  3                 1054.51      open
  4                  144.28      open
  5                   88.93      open
  6                  758.61      open
  7                  341.64      open
  8                 1415.16      open
   
   
  Node Results at 670:30:00 hrs:
  ----------------------------------------------
                     Demand      Head  Pressure
  Node                 m3/h         m         m
  ----------------------------------------------
  1                  120.42    180.58     20.58
  2                  120.42    199.71     49.71
  3                  325.13    162.10     12.10
  4                  144.50    193.74     38.74
  5                  240.84    175.01     15.01
  6                  397.39    187.98     22.98
  7                -1348.70    210.00      0.00  Reservoir
   
   
  Link Results at 670:30:00 hrs:
  ------------------------------------
                       Flow     State
  Link                 m3/h          
  ------------------------------------
  1                  223.29      open
  2                  102.87      open
  3                 1004.99      open
  4                  137.51      open
  5                   84.75      open
  6                  722.98      open
  7                  325.60      open
  8                 1348.70      open
   
   
  Node Results at 671:00:00 hrs:
  ----------------------------------------------
                     Demand      Head  Pressure
  Node                 m3/h         m         m
  ----------------------------------------------
  1                  124.48    178.72     18.72
  2                  124.48    199.05     49.05
  3                  336.10    159.07      9.07
  4                  149.38    192.71     37.71
  5                  248.96    172.80     12.80
  6                  410.79    186.58     21.58
  7                -1394.20    210.00      0.00  Reservoir
   
   
  Link Results at 671:00:00 hrs:
  ------------------------------------
                       Flow     State
  Link                 m3/h          
  ------------------------------------
  1                  230.82      open
  2                  106.34      open
  3                 1038.89      open
  4                  142.15      open
  5                   87.61      open
  6                  747.37      open
  7                  336.58      open
  8                 1394.20      open
   
   
  Node Results at 671:30:00 hrs:
  ----------------------------------------------
                     Demand      Head  Pressure
  Node                 m3/h         m         m
  ----------------------------------------------
  1                  103.92    187.61     27.61
  2                  103.92    202.17     52.17
  3                  280.58    173.54     23.54
  4                  124.70    197.62     42.62
  5                  207.84    183.37     23.37
  6                  342.93    193.24     28.24
  7                -1163.88    210.00      0.00  Reservoir
   
   
  Link Results at 671:30:00 hrs:
  ------------------------------------
                       Flow     State
  Link                 m3/h          
  ------------------------------------
  1                  192.69      open
  2                   88.77      open
  3                  867.27      open
  4                  118.66      open
  5                   73.14      open
  6                  623.91      open
  7                  280.98      open
  8                 1163.88      open
   
   
  Node Results at 672:00:00 hrs:
  ----------------------------------------------
                     Demand      Head  Pressure
  Node                 m3/h         m         m
  ----------------------------------------------
  1                   99.53    189.33     29.33
  2                   99.53    202.77     52.77
  3                  268.72    176.34     26.34
  4                  119.43    198.57     43.57
  5                  199.05    185.42     25.42
  6                  328.44    194.53     29.53
  7                -1114.69    210.00      0.00  Reservoir
   
   
  Link Results at 672:00:00 hrs:
  ------------------------------------
                       Flow     State
  Link                 m3/h          
  ------------------------------------
  1                  184.55      open
  2                   85.02      open
  3                  830.62      open
  4                  113.65      open
  5                   70.05      open
  6                  597.54      open
  7                  269.10      open
  8                 1114.69      open
   
  Analysis ended Tue Mar  7 12:01:40 2023
