  Page 1                                    Tue Mar  7 12:01:39 2023

  ******************************************************************
  *                           E P A N E T                          *
  *                   Hydraulic and Water Quality                  *
  *                   Analysis for Pipe Networks                   *
  *                         Version 2.2                            *
  ******************************************************************
  
  Analysis begun Tue Mar  7 12:01:39 2023

   
  Node Results at 0:00:00 hrs:
  ----------------------------------------------
                     Demand      Head  Pressure
  Node                 m3/h         m         m
  ----------------------------------------------
  1                   96.35    190.54     30.54
  2                   96.35    203.19     53.19
  3                  260.15    178.31     28.31
  4                  115.62    199.24     44.24
  5                  192.70    186.85     26.85
  6                  317.96    195.43     30.43
  7                -1079.13    210.00      0.00  Reservoir
   
   
  Link Results at 0:00:00 hrs:
  ------------------------------------
                       Flow     State
  Link                 m3/h          
  ------------------------------------
  1                  178.66      open
  2                   82.31      open
  3                  804.12      open
  4                  110.02      open
  5                   67.81      open
  6                  578.47      open
  7                  260.52      open
  8                 1079.13      open
   
   
  Node Results at 0:15:00 hrs:
  ----------------------------------------------
                     Demand      Head  Pressure
  Node                 m3/h         m         m
  ----------------------------------------------
  1                   80.66    195.99     35.99
  2                   80.66    205.10     55.10
  3                  217.80    187.19     37.19
  4                   96.80    202.26     47.26
  5                  161.33    193.34     33.34
  6                  266.19    199.52     34.52
  7                 -903.45    210.00      0.00  Reservoir
   
   
  Link Results at 0:15:00 hrs:
  ------------------------------------
                       Flow     State
  Link                 m3/h          
  ------------------------------------
  1                  149.58      open
  2                   68.91      open
  3                  673.21      open
  4                   92.11      open
  5                   56.77      open
  6                  484.30      open
  7                  218.10      open
  8                  903.45      open
   
   
  Node Results at 0:30:00 hrs:
  ----------------------------------------------
                     Demand      Head  Pressure
  Node                 m3/h         m         m
  ----------------------------------------------
  1                   73.88    198.10     38.10
  2                   73.88    205.84     55.84
  3                  199.47    190.62     40.62
  4                   88.65    203.42     48.42
  5                  147.75    195.84     35.84
  6                  243.79    201.09     36.09
  7                 -827.42    210.00      0.00  Reservoir
   
   
  Link Results at 0:30:00 hrs:
  ------------------------------------
                       Flow     State
  Link                 m3/h          
  ------------------------------------
  1                  136.99      open
  2                   63.11      open
  3                  616.55      open
  4                   84.36      open
  5                   52.00      open
  6                  443.54      open
  7                  199.75      open
  8                  827.42      open
   
   
  Node Results at 0:45:00 hrs:
  ----------------------------------------------
                     Demand      Head  Pressure
  Node                 m3/h         m         m
  ----------------------------------------------
  1                   70.55    199.07     39.07
  2                   70.55    206.18     56.18
  3                  190.48    192.21     42.21
  4                   84.66    203.96     48.96
  5                  141.10    197.00     37.00
  6                  232.81    201.82     36.82
  7                 -790.15    210.00      0.00  Reservoir
   
   
  Link Results at 0:45:00 hrs:
  ------------------------------------
                       Flow     State
  Link                 m3/h          
  ------------------------------------
  1                  130.82      open
  2                   60.27      open
  3                  588.79      open
  4                   80.56      open
  5                   49.65      open
  6                  423.57      open
  7                  190.75      open
  8                  790.15      open
   
   
  Node Results at 1:00:00 hrs:
  ----------------------------------------------
                     Demand      Head  Pressure
  Node                 m3/h         m         m
  ----------------------------------------------
  1                   64.48    200.75     40.75
  2                   64.48    206.76     56.76
  3                  174.10    194.94     44.94
  4                   77.38    204.89     49.89
  5                  128.96    199.00     39.00
  6                  212.79    203.07     38.07
  7                 -722.20    210.00      0.00  Reservoir
   
   
  Link Results at 1:00:00 hrs:
  ------------------------------------
                       Flow     State
  Link                 m3/h          
  ------------------------------------
  1                  119.57      open
  2                   55.09      open
  3                  538.15      open
  4                   73.63      open
  5                   45.38      open
  6                  387.14      open
  7                  174.35      open
  8                  722.20      open
   
   
  Node Results at 1:15:00 hrs:
  ----------------------------------------------
                     Demand      Head  Pressure
  Node                 m3/h         m         m
  ----------------------------------------------
  1                   54.30    203.27     43.27
  2                   54.30    207.65     57.65
  3                  146.60    199.04     49.04
  4                   65.15    206.28     51.28
  5                  108.59    202.00     42.00
  6                  179.18    204.96     39.96
  7                 -608.11    210.00      0.00  Reservoir
   
   
  Link Results at 1:15:00 hrs:
  ------------------------------------
                       Flow     State
  Link                 m3/h          
  ------------------------------------
  1                  100.68      open
  2                   46.38      open
  3                  453.14      open
  4                   62.00      open
  5                   38.21      open
  6                  325.98      open
  7                  146.81      open
  8                  608.11      open
   
   
  Node Results at 1:30:00 hrs:
  ----------------------------------------------
                     Demand      Head  Pressure
  Node                 m3/h         m         m
  ----------------------------------------------
  1                   55.96    202.89     42.89
  2                   55.96    207.51     57.51
  3                  151.08    198.42     48.42
  4                   67.15    206.07     51.07
  5                  111.91    201.54     41.54
  6                  184.65    204.67     39.67
  7                 -626.70    210.00      0.00  Reservoir
   
   
  Link Results at 1:30:00 hrs:
  ------------------------------------
                       Flow     State
  Link                 m3/h          
  ------------------------------------
  1                  103.76      open
  2                   47.80      open
  3                  466.99      open
  4                   63.90      open
  5                   39.38      open
  6                  335.95      open
  7                  151.29      open
  8                  626.70      open
   
   
  Node Results at 1:45:00 hrs:
  ----------------------------------------------
                     Demand      Head  Pressure
  Node                 m3/h         m         m
  ----------------------------------------------
  1                   51.54    203.89     43.89
  2                   51.54    207.86     57.86
  3                  139.16    200.05     50.05
  4                   61.85    206.62     51.62
  5                  103.08    202.73     42.73
  6                  170.09    205.43     40.43
  7                 -577.27    210.00      0.00  Reservoir
   
   
  Link Results at 1:45:00 hrs:
  ------------------------------------
                       Flow     State
  Link                 m3/h          
  ------------------------------------
  1                   95.57      open
  2                   44.03      open
  3                  430.16      open
  4                   58.86      open
  5                   36.28      open
  6                  309.45      open
  7                  139.36      open
  8                  577.27      open
   
   
  Node Results at 2:00:00 hrs:
  ----------------------------------------------
                     Demand      Head  Pressure
  Node                 m3/h         m         m
  ----------------------------------------------
  1                   49.79    204.27     44.27
  2                   49.79    207.99     57.99
  3                  134.44    200.67     50.67
  4                   59.75    206.83     51.83
  5                   99.59    203.18     43.18
  6                  164.32    205.71     40.71
  7                 -557.69    210.00      0.00  Reservoir
   
   
  Link Results at 2:00:00 hrs:
  ------------------------------------
                       Flow     State
  Link                 m3/h          
  ------------------------------------
  1                   92.33      open
  2                   42.54      open
  3                  415.56      open
  4                   56.86      open
  5                   35.05      open
  6                  298.95      open
  7                  134.63      open
  8                  557.69      open
   
   
  Node Results at 2:15:00 hrs:
  ----------------------------------------------
                     Demand      Head  Pressure
  Node                 m3/h         m         m
  ----------------------------------------------
  1                   48.82    204.48     44.48
  2                   48.82    208.07     58.07
  3                  131.80    201.00     51.00
  4                   58.58    206.95     51.95
  5                   97.63    203.43     43.43
  6                  161.09    205.86     40.86
  7                 -546.73    210.00      0.00  Reservoir
   
   
  Link Results at 2:15:00 hrs:
  ------------------------------------
                       Flow     State
  Link                 m3/h          
  ------------------------------------
  1                   90.52      open
  2                   41.70      open
  3                  407.40      open
  4                   55.74      open
  5                   34.36      open
  6                  293.08      open
  7                  131.99      open
  8                  546.73      open
   
   
  Node Results at 2:30:00 hrs:
  ----------------------------------------------
                     Demand      Head  Pressure
  Node                 m3/h         m         m
  ----------------------------------------------
  1                   46.04    205.04     45.04
  2                   46.04    208.27     58.27
  3                  124.32    201.93     51.93
  4                   55.25    207.26     52.26
  5                   92.09    204.10     44.10
  6                  151.94    206.29     41.29
  7                 -515.69    210.00      0.00  Reservoir
   
   
  Link Results at 2:30:00 hrs:
  ------------------------------------
                       Flow     State
  Link                 m3/h          
  ------------------------------------
  1                   85.38      open
  2                   39.33      open
  3                  384.27      open
  4                   52.58      open
  5                   32.41      open
  6                  276.44      open
  7                  124.49      open
  8                  515.69      open
   
   
  Node Results at 2:45:00 hrs:
  ----------------------------------------------
                     Demand      Head  Pressure
  Node                 m3/h         m         m
  ----------------------------------------------
  1                   45.65    205.12     45.12
  2                   45.65    208.29     58.29
  3                  123.26    202.05     52.05
  4                   54.78    207.30     52.30
  5                   91.31    204.20     44.20
  6                  150.65    206.35     41.35
  7                 -511.31    210.00      0.00  Reservoir
   
   
  Link Results at 2:45:00 hrs:
  ------------------------------------
                       Flow     State
  Link                 m3/h          
  ------------------------------------
  1                   84.65      open
  2                   39.00      open
  3                  381.00      open
  4                   52.13      open
  5                   32.13      open
  6                  274.09      open
  7                  123.44      open
  8                  511.31      open
   
   
  Node Results at 3:00:00 hrs:
  ----------------------------------------------
                     Demand      Head  Pressure
  Node                 m3/h         m         m
  ----------------------------------------------
  1                   41.22    205.96     45.96
  2                   41.22    208.59     58.59
  3                  111.29    203.42     53.42
  4                   49.46    207.77     52.77
  5                   82.44    205.20     45.20
  6                  136.02    206.98     41.98
  7                 -461.64    210.00      0.00  Reservoir
   
   
  Link Results at 3:00:00 hrs:
  ------------------------------------
                       Flow     State
  Link                 m3/h          
  ------------------------------------
  1                   76.43      open
  2                   35.21      open
  3                  343.99      open
  4                   47.07      open
  5                   29.01      open
  6                  247.46      open
  7                  111.45      open
  8                  461.64      open
   
   
  Node Results at 3:15:00 hrs:
  ----------------------------------------------
                     Demand      Head  Pressure
  Node                 m3/h         m         m
  ----------------------------------------------
  1                   36.57    206.76     46.76
  2                   36.57    208.87     58.87
  3                   98.73    204.73     54.73
  4                   43.88    208.21     53.21
  5                   73.13    206.15     46.15
  6                  120.67    207.58     42.58
  7                 -409.55    210.00      0.00  Reservoir
   
   
  Link Results at 3:15:00 hrs:
  ------------------------------------
                       Flow     State
  Link                 m3/h          
  ------------------------------------
  1                   67.81      open
  2                   31.24      open
  3                  305.18      open
  4                   41.76      open
  5                   25.74      open
  6                  219.54      open
  7                   98.87      open
  8                  409.55      open
   
   
  Node Results at 3:30:00 hrs:
  ----------------------------------------------
                     Demand      Head  Pressure
  Node                 m3/h         m         m
  ----------------------------------------------
  1                   33.56    207.24     47.24
  2                   33.56    209.03     59.03
  3                   90.61    205.51     55.51
  4                   40.27    208.47     53.47
  5                   67.12    206.72     46.72
  6                  110.75    207.93     42.93
  7                 -375.88    210.00      0.00  Reservoir
   
   
  Link Results at 3:30:00 hrs:
  ------------------------------------
                       Flow     State
  Link                 m3/h          
  ------------------------------------
  1                   62.23      open
  2                   28.67      open
  3                  280.09      open
  4                   38.32      open
  5                   23.62      open
  6                  201.49      open
  7                   90.74      open
  8                  375.88      open
   
   
  Node Results at 3:45:00 hrs:
  ----------------------------------------------
                     Demand      Head  Pressure
  Node                 m3/h         m         m
  ----------------------------------------------
  1                   30.98    207.62     47.62
  2                   30.98    209.17     59.17
  3                   83.65    206.12     56.12
  4                   37.18    208.68     53.68
  5                   61.96    207.17     47.17
  6                  102.24    208.22     43.22
  7                 -346.98    210.00      0.00  Reservoir
   
   
  Link Results at 3:45:00 hrs:
  ------------------------------------
                       Flow     State
  Link                 m3/h          
  ------------------------------------
  1                   57.45      open
  2                   26.47      open
  3                  258.56      open
  4                   35.38      open
  5                   21.81      open
  6                  186.00      open
  7                   83.77      open
  8                  346.98      open
   
   
  Node Results at 4:00:00 hrs:
  ----------------------------------------------
                     Demand      Head  Pressure
  Node                 m3/h         m         m
  ----------------------------------------------
  1                   31.79    207.50     47.50
  2                   31.79    209.13     59.13
  3                   85.84    205.93     55.93
  4                   38.15    208.62     53.62
  5                   63.59    207.03     47.03
  6                  104.92    208.13     43.13
  7                 -356.08    210.00      0.00  Reservoir
   
   
  Link Results at 4:00:00 hrs:
  ------------------------------------
                       Flow     State
  Link                 m3/h          
  ------------------------------------
  1                   58.95      open
  2                   27.16      open
  3                  265.34      open
  4                   36.30      open
  5                   22.38      open
  6                  190.88      open
  7                   85.96      open
  8                  356.08      open
   
   
  Node Results at 4:15:00 hrs:
  ----------------------------------------------
                     Demand      Head  Pressure
  Node                 m3/h         m         m
  ----------------------------------------------
  1                   31.47    207.55     47.55
  2                   31.47    209.14     59.14
  3                   84.96    206.01     56.01
  4                   37.76    208.65     53.65
  5                   62.93    207.09     47.09
  6                  103.84    208.17     43.17
  7                 -352.41    210.00      0.00  Reservoir
   
   
  Link Results at 4:15:00 hrs:
  ------------------------------------
                       Flow     State
  Link                 m3/h          
  ------------------------------------
  1                   58.35      open
  2                   26.88      open
  3                  262.60      open
  4                   35.93      open
  5                   22.15      open
  6                  188.91      open
  7                   85.08      open
  8                  352.41      open
   
   
  Node Results at 4:30:00 hrs:
  ----------------------------------------------
                     Demand      Head  Pressure
  Node                 m3/h         m         m
  ----------------------------------------------
  1                   35.26    206.98     46.98
  2                   35.26    208.94     58.94
  3                   95.19    205.08     55.08
  4                   42.31    208.33     53.33
  5                   70.51    206.40     46.40
  6                  116.35    207.74     42.74
  7                 -394.87    210.00      0.00  Reservoir
   
   
  Link Results at 4:30:00 hrs:
  ------------------------------------
                       Flow     State
  Link                 m3/h          
  ------------------------------------
  1                   65.37      open
  2                   30.12      open
  3                  294.24      open
  4                   40.26      open
  5                   24.81      open
  6                  211.67      open
  7                   95.33      open
  8                  394.87      open
   
   
  Node Results at 4:45:00 hrs:
  ----------------------------------------------
                     Demand      Head  Pressure
  Node                 m3/h         m         m
  ----------------------------------------------
  1                   36.71    206.74     46.74
  2                   36.71    208.86     58.86
  3                   99.11    204.69     54.69
  4                   44.05    208.20     53.20
  5                   73.41    206.12     46.12
  6                  121.13    207.56     42.56
  7                 -411.11    210.00      0.00  Reservoir
   
   
  Link Results at 4:45:00 hrs:
  ------------------------------------
                       Flow     State
  Link                 m3/h          
  ------------------------------------
  1                   68.06      open
  2                   31.36      open
  3                  306.34      open
  4                   41.91      open
  5                   25.83      open
  6                  220.38      open
  7                   99.25      open
  8                  411.11      open
   
   
  Node Results at 5:00:00 hrs:
  ----------------------------------------------
                     Demand      Head  Pressure
  Node                 m3/h         m         m
  ----------------------------------------------
  1                   35.92    206.87     46.87
  2                   35.92    208.90     58.90
  3                   96.97    204.90     54.90
  4                   43.10    208.27     53.27
  5                   71.83    206.28     46.28
  6                  118.52    207.66     42.66
  7                 -402.25    210.00      0.00  Reservoir
   
   
  Link Results at 5:00:00 hrs:
  ------------------------------------
                       Flow     State
  Link                 m3/h          
  ------------------------------------
  1                   66.60      open
  2                   30.68      open
  3                  299.74      open
  4                   41.01      open
  5                   25.28      open
  6                  215.63      open
  7                   97.11      open
  8                  402.25      open
   
   
  Node Results at 5:15:00 hrs:
  ----------------------------------------------
                     Demand      Head  Pressure
  Node                 m3/h         m         m
  ----------------------------------------------
  1                   41.19    205.97     45.97
  2                   41.19    208.59     58.59
  3                  111.22    203.43     53.43
  4                   49.43    207.77     52.77
  5                   82.39    205.20     45.20
  6                  135.94    206.98     41.98
  7                 -461.37    210.00      0.00  Reservoir
   
   
  Link Results at 5:15:00 hrs:
  ------------------------------------
                       Flow     State
  Link                 m3/h          
  ------------------------------------
  1                   76.39      open
  2                   35.19      open
  3                  343.80      open
  4                   47.04      open
  5                   28.99      open
  6                  247.32      open
  7                  111.38      open
  8                  461.37      open
   
   
  Node Results at 5:30:00 hrs:
  ----------------------------------------------
                     Demand      Head  Pressure
  Node                 m3/h         m         m
  ----------------------------------------------
  1                   41.64    205.88     45.88
  2                   41.64    208.56     58.56
  3                  112.42    203.30     53.30
  4                   49.96    207.72     52.72
  5                   83.27    205.11     45.11
  6                  137.40    206.92     41.92
  7                 -466.32    210.00      0.00  Reservoir
   
   
  Link Results at 5:30:00 hrs:
  ------------------------------------
                       Flow     State
  Link                 m3/h          
  ------------------------------------
  1                   77.20      open
  2                   35.57      open
  3                  347.48      open
  4                   47.54      open
  5                   29.30      open
  6                  249.97      open
  7                  112.58      open
  8                  466.32      open
   
   
  Node Results at 5:45:00 hrs:
  ----------------------------------------------
                     Demand      Head  Pressure
  Node                 m3/h         m         m
  ----------------------------------------------
  1                   41.45    205.92     45.92
  2                   41.45    208.57     58.57
  3                  111.92    203.35     53.35
  4                   49.74    207.74     52.74
  5                   82.91    205.15     45.15
  6                  136.80    206.94     41.94
  7                 -464.28    210.00      0.00  Reservoir
   
   
  Link Results at 5:45:00 hrs:
  ------------------------------------
                       Flow     State
  Link                 m3/h          
  ------------------------------------
  1                   76.87      open
  2                   35.41      open
  3                  345.96      open
  4                   47.34      open
  5                   29.18      open
  6                  248.88      open
  7                  112.08      open
  8                  464.28      open
   
   
  Node Results at 6:00:00 hrs:
  ----------------------------------------------
                     Demand      Head  Pressure
  Node                 m3/h         m         m
  ----------------------------------------------
  1                   54.54    203.22     43.22
  2                   54.54    207.63     57.63
  3                  147.26    198.95     48.95
  4                   65.45    206.25     51.25
  5                  109.08    201.93     41.93
  6                  179.98    204.92     39.92
  7                 -610.84    210.00      0.00  Reservoir
   
   
  Link Results at 6:00:00 hrs:
  ------------------------------------
                       Flow     State
  Link                 m3/h          
  ------------------------------------
  1                  101.13      open
  2                   46.59      open
  3                  455.17      open
  4                   62.28      open
  5                   38.39      open
  6                  327.45      open
  7                  147.47      open
  8                  610.84      open
   
   
  Node Results at 6:15:00 hrs:
  ----------------------------------------------
                     Demand      Head  Pressure
  Node                 m3/h         m         m
  ----------------------------------------------
  1                   59.93    201.92     41.92
  2                   59.93    207.17     57.17
  3                  161.82    196.84     46.84
  4                   71.92    205.53     50.53
  5                  119.86    200.39     40.39
  6                  197.77    203.95     38.95
  7                 -671.24    210.00      0.00  Reservoir
   
   
  Link Results at 6:15:00 hrs:
  ------------------------------------
                       Flow     State
  Link                 m3/h          
  ------------------------------------
  1                  111.13      open
  2                   51.20      open
  3                  500.17      open
  4                   68.44      open
  5                   42.18      open
  6                  359.82      open
  7                  162.05      open
  8                  671.24      open
   
   
  Node Results at 6:30:00 hrs:
  ----------------------------------------------
                     Demand      Head  Pressure
  Node                 m3/h         m         m
  ----------------------------------------------
  1                   81.85    195.61     35.61
  2                   81.85    204.96     54.96
  3                  221.00    186.57     36.57
  4                   98.22    202.04     47.04
  5                  163.71    192.88     32.88
  6                  270.11    199.23     34.23
  7                 -916.75    210.00      0.00  Reservoir
   
   
  Link Results at 6:30:00 hrs:
  ------------------------------------
                       Flow     State
  Link                 m3/h          
  ------------------------------------
  1                  151.78      open
  2                   69.92      open
  3                  683.12      open
  4                   93.47      open
  5                   57.61      open
  6                  491.43      open
  7                  221.32      open
  8                  916.75      open
   
   
  Node Results at 6:45:00 hrs:
  ----------------------------------------------
                     Demand      Head  Pressure
  Node                 m3/h         m         m
  ----------------------------------------------
  1                  100.66    188.89     28.89
  2                  100.66    202.61     52.61
  3                  271.79    175.63     25.63
  4                  120.79    198.33     43.33
  5                  201.32    184.89     24.89
  6                  332.18    194.20     29.20
  7                -1127.41    210.00      0.00  Reservoir
   
   
  Link Results at 6:45:00 hrs:
  ------------------------------------
                       Flow     State
  Link                 m3/h          
  ------------------------------------
  1                  186.66      open
  2                   85.99      open
  3                  840.10      open
  4                  114.95      open
  5                   70.85      open
  6                  604.36      open
  7                  272.17      open
  8                 1127.41      open
   
   
  Node Results at 7:00:00 hrs:
  ----------------------------------------------
                     Demand      Head  Pressure
  Node                 m3/h         m         m
  ----------------------------------------------
  1                  127.36    177.37     17.37
  2                  127.36    198.58     48.58
  3                  343.86    156.87      6.87
  4                  152.83    191.96     36.96
  5                  254.71    171.19     11.19
  6                  420.28    185.57     20.57
  7                -1426.40    210.00      0.00  Reservoir
   
   
  Link Results at 7:00:00 hrs:
  ------------------------------------
                       Flow     State
  Link                 m3/h          
  ------------------------------------
  1                  236.16      open
  2                  108.80      open
  3                 1062.89      open
  4                  145.43      open
  5                   89.64      open
  6                  764.63      open
  7                  344.35      open
  8                 1426.40      open
   
   
  Node Results at 7:15:00 hrs:
  ----------------------------------------------
                     Demand      Head  Pressure
  Node                 m3/h         m         m
  ----------------------------------------------
  1                  143.11    171.84     11.84
  2                  143.11    196.37     46.37
  3                  353.02    150.08      0.08
  4                  171.73    188.45     33.45
  5                  286.22    163.95      3.95
  6                  472.26    180.74     15.74
  7                -1569.45    210.00      0.00  Reservoir
   
   
  Link Results at 7:15:00 hrs:
  ------------------------------------
                       Flow     State
  Link                 m3/h          
  ------------------------------------
  1                  255.44      open
  2                  112.33      open
  3                 1170.90      open
  4                  152.60      open
  5                   88.09      open
  6                  846.57      open
  7                  374.31      open
  8                 1569.45      open
   
   
  Node Results at 7:30:00 hrs:
  ----------------------------------------------
                     Demand      Head  Pressure
  Node                 m3/h         m         m
  ----------------------------------------------
  1                  147.60    170.99     10.99
  2                  147.60    195.90     45.90
  3                  344.07    150.07      0.07
  4                  177.12    187.69     32.69
  5                  295.21    162.53      2.53
  6                  487.09    179.66     14.66
  7                -1598.69    210.00      0.00  Reservoir
   
   
  Link Results at 7:30:00 hrs:
  ------------------------------------
                       Flow     State
  Link                 m3/h          
  ------------------------------------
  1                  257.56      open
  2                  109.96      open
  3                 1193.53      open
  4                  150.98      open
  5                   83.13      open
  6                  865.43      open
  7                  378.34      open
  8                 1598.69      open
   
   
  Node Results at 7:45:00 hrs:
  ----------------------------------------------
                     Demand      Head  Pressure
  Node                 m3/h         m         m
  ----------------------------------------------
  1                  157.22    169.21      9.21
  2                  157.22    194.94     44.94
  3                  326.54    150.06      0.06
  4                  188.66    186.17     31.17
  5                  307.91    160.10      0.10
  6                  518.82    177.52     12.52
  7                -1656.36    210.00      0.00  Reservoir
   
   
  Link Results at 7:45:00 hrs:
  ------------------------------------
                       Flow     State
  Link                 m3/h          
  ------------------------------------
  1                  262.09      open
  2                  104.87      open
  3                 1237.06      open
  4                  147.69      open
  5                   73.98      open
  6                  900.71      open
  7                  381.89      open
  8                 1656.36      open
   
   
  Node Results at 8:00:00 hrs:
  ----------------------------------------------
                     Demand      Head  Pressure
  Node                 m3/h         m         m
  ----------------------------------------------
  1                  154.32    169.72      9.72
  2                  154.32    195.18     45.18
  3                  330.14    150.06      0.06
  4                  185.18    186.55     31.55
  5                  308.64    160.43      0.43
  6                  509.25    178.03     13.03
  7                -1641.85    210.00      0.00  Reservoir
   
   
  Link Results at 8:00:00 hrs:
  ------------------------------------
                       Flow     State
  Link                 m3/h          
  ------------------------------------
  1                  260.66      open
  2                  106.34      open
  3                 1226.87      open
  4                  148.51      open
  5                   75.30      open
  6                  893.18      open
  7                  383.93      open
  8                 1641.85      open
   
   
  Node Results at 8:15:00 hrs:
  ----------------------------------------------
                     Demand      Head  Pressure
  Node                 m3/h         m         m
  ----------------------------------------------
  1                  149.56    170.62     10.62
  2                  149.56    195.69     45.69
  3                  340.09    150.07      0.07
  4                  179.47    187.36     32.36
  5                  299.11    161.92      1.92
  6                  493.53    179.18     14.18
  7                -1611.32    210.00      0.00  Reservoir
   
   
  Link Results at 8:15:00 hrs:
  ------------------------------------
                       Flow     State
  Link                 m3/h          
  ------------------------------------
  1                  258.47      open
  2                  108.92      open
  3                 1203.29      open
  4                  150.27      open
  5                   80.91      open
  6                  873.56      open
  7                  380.02      open
  8                 1611.32      open
   
   
  Node Results at 8:30:00 hrs:
  ----------------------------------------------
                     Demand      Head  Pressure
  Node                 m3/h         m         m
  ----------------------------------------------
  1                  160.51    168.67      8.67
  2                  160.51    194.71     44.71
  3                  324.16    150.06      0.06
  4                  192.61    185.82     30.82
  5                  302.67    160.09      0.09
  6                  529.68    177.07     12.07
  7                -1670.13    210.00      0.00  Reservoir
   
   
  Link Results at 8:30:00 hrs:
  ------------------------------------
                       Flow     State
  Link                 m3/h          
  ------------------------------------
  1                  263.78      open
  2                  103.27      open
  3                 1245.85      open
  4                  146.92      open
  5                   73.96      open
  6                  906.31      open
  7                  376.64      open
  8                 1670.13      open
   
   
  Node Results at 8:45:00 hrs:
  ----------------------------------------------
                     Demand      Head  Pressure
  Node                 m3/h         m         m
  ----------------------------------------------
  1                  162.75    168.30      8.30
  2                  162.75    194.55     44.55
  3                  322.53    150.05      0.05
  4                  195.30    185.58     30.58
  5                  299.07    160.08      0.08
  6                  537.06    176.77     11.77
  7                -1679.45    210.00      0.00  Reservoir
   
   
  Link Results at 8:45:00 hrs:
  ------------------------------------
                       Flow     State
  Link                 m3/h          
  ------------------------------------
  1                  264.92      open
  2                  102.17      open
  3                 1251.79      open
  4                  146.40      open
  5                   73.95      open
  6                  910.09      open
  7                  373.03      open
  8                 1679.45      open
   
   
  Node Results at 9:00:00 hrs:
  ----------------------------------------------
                     Demand      Head  Pressure
  Node                 m3/h         m         m
  ----------------------------------------------
  1                  167.87    167.47      7.47
  2                  167.87    194.19     44.19
  3                  318.76    150.05      0.05
  4                  201.45    185.04     30.04
  5                  290.71    160.07      0.07
  6                  553.98    176.07     11.07
  7                -1700.65    210.00      0.00  Reservoir
   
   
  Link Results at 9:00:00 hrs:
  ------------------------------------
                       Flow     State
  Link                 m3/h          
  ------------------------------------
  1                  267.50      open
  2                   99.62      open
  3                 1265.28      open
  4                  145.20      open
  5                   73.93      open
  6                  918.63      open
  7                  364.65      open
  8                 1700.65      open
   
   
  Node Results at 9:15:00 hrs:
  ----------------------------------------------
                     Demand      Head  Pressure
  Node                 m3/h         m         m
  ----------------------------------------------
  1                  165.71    167.82      7.82
  2                  165.71    194.34     44.34
  3                  320.36    150.05      0.05
  4                  198.85    185.27     30.27
  5                  294.26    160.08      0.08
  6                  546.84    176.36     11.36
  7                -1691.72    210.00      0.00  Reservoir
   
   
  Link Results at 9:15:00 hrs:
  ------------------------------------
                       Flow     State
  Link                 m3/h          
  ------------------------------------
  1                  266.41      open
  2                  100.71      open
  3                 1259.60      open
  4                  145.71      open
  5                   73.94      open
  6                  915.04      open
  7                  368.21      open
  8                 1691.72      open
   
   
  Node Results at 9:30:00 hrs:
  ----------------------------------------------
                     Demand      Head  Pressure
  Node                 m3/h         m         m
  ----------------------------------------------
  1                  153.55    169.86      9.86
  2                  153.55    195.27     45.27
  3                  331.78    150.06      0.06
  4                  184.26    186.68     31.68
  5                  307.09    160.67      0.67
  6                  506.70    178.22     13.22
  7                -1636.93    210.00      0.00  Reservoir
   
   
  Link Results at 9:30:00 hrs:
  ------------------------------------
                       Flow     State
  Link                 m3/h          
  ------------------------------------
  1                  260.31      open
  2                  106.76      open
  3                 1223.07      open
  4                  148.80      open
  5                   76.23      open
  6                  890.02      open
  7                  383.32      open
  8                 1636.93      open
   
   
  Node Results at 9:45:00 hrs:
  ----------------------------------------------
                     Demand      Head  Pressure
  Node                 m3/h         m         m
  ----------------------------------------------
  1                  151.49    170.25     10.25
  2                  151.49    195.48     45.48
  3                  336.10    150.07      0.07
  4                  181.78    187.03     32.03
  5                  302.97    161.31      1.31
  6                  499.91    178.72     13.72
  7                -1623.74    210.00      0.00  Reservoir
   
   
  Link Results at 9:45:00 hrs:
  ------------------------------------
                       Flow     State
  Link                 m3/h          
  ------------------------------------
  1                  259.36      open
  2                  107.88      open
  3                 1212.89      open
  4                  149.56      open
  5                   78.67      open
  6                  881.55      open
  7                  381.64      open
  8                 1623.74      open
   
   
  Node Results at 10:00:00 hrs:
  ----------------------------------------------
                     Demand      Head  Pressure
  Node                 m3/h         m         m
  ----------------------------------------------
  1                  143.71    171.72     11.72
  2                  143.71    196.31     46.31
  3                  351.84    150.08      0.08
  4                  172.45    188.35     33.35
  5                  287.42    163.76      3.76
  6                  474.24    180.59     15.59
  7                -1573.37    210.00      0.00  Reservoir
   
   
  Link Results at 10:00:00 hrs:
  ------------------------------------
                       Flow     State
  Link                 m3/h          
  ------------------------------------
  1                  255.73      open
  2                  112.02      open
  3                 1173.93      open
  4                  152.38      open
  5                   87.44      open
  6                  849.10      open
  7                  374.86      open
  8                 1573.37      open
   
   
  Node Results at 10:15:00 hrs:
  ----------------------------------------------
                     Demand      Head  Pressure
  Node                 m3/h         m         m
  ----------------------------------------------
  1                  137.50    172.90     12.90
  2                  137.50    196.96     46.96
  3                  363.79    150.10      0.10
  4                  165.01    189.39     34.39
  5                  275.01    165.73      5.73
  6                  453.77    182.08     17.08
  7                -1532.58    210.00      0.00  Reservoir
   
   
  Link Results at 10:15:00 hrs:
  ------------------------------------
                       Flow     State
  Link                 m3/h          
  ------------------------------------
  1                  252.74      open
  2                  115.24      open
  3                 1142.33      open
  4                  154.58      open
  5                   93.97      open
  6                  822.75      open
  7                  368.98      open
  8                 1532.58      open
   
   
  Node Results at 10:30:00 hrs:
  ----------------------------------------------
                     Demand      Head  Pressure
  Node                 m3/h         m         m
  ----------------------------------------------
  1                  131.26    175.49     15.49
  2                  131.26    197.93     47.93
  3                  354.40    153.81      3.81
  4                  157.51    190.92     35.92
  5                  262.52    168.96      8.96
  6                  433.16    184.17     19.17
  7                -1470.10    210.00      0.00  Reservoir
   
   
  Link Results at 10:30:00 hrs:
  ------------------------------------
                       Flow     State
  Link                 m3/h          
  ------------------------------------
  1                  243.39      open
  2                  112.13      open
  3                 1095.45      open
  4                  149.88      open
  5                   92.38      open
  6                  788.06      open
  7                  354.90      open
  8                 1470.10      open
   
   
  Node Results at 10:45:00 hrs:
  ----------------------------------------------
                     Demand      Head  Pressure
  Node                 m3/h         m         m
  ----------------------------------------------
  1                  146.10    171.27     11.27
  2                  146.10    196.06     46.06
  3                  347.09    150.08      0.08
  4                  175.32    187.94     32.94
  5                  292.20    163.00      3.00
  6                  482.13    180.02     15.02
  7                -1588.95    210.00      0.00  Reservoir
   
   
  Link Results at 10:45:00 hrs:
  ------------------------------------
                       Flow     State
  Link                 m3/h          
  ------------------------------------
  1                  256.86      open
  2                  110.76      open
  3                 1185.99      open
  4                  151.52      open
  5                   84.81      open
  6                  859.15      open
  7                  377.01      open
  8                 1588.95      open
   
   
  Node Results at 11:00:00 hrs:
  ----------------------------------------------
                     Demand      Head  Pressure
  Node                 m3/h         m         m
  ----------------------------------------------
  1                  127.35    177.37     17.37
  2                  127.35    198.58     48.58
  3                  343.84    156.87      6.87
  4                  152.82    191.96     36.96
  5                  254.70    171.19     11.19
  6                  420.25    185.58     20.58
  7                -1426.32    210.00      0.00  Reservoir
   
   
  Link Results at 11:00:00 hrs:
  ------------------------------------
                       Flow     State
  Link                 m3/h          
  ------------------------------------
  1                  236.14      open
  2                  108.79      open
  3                 1062.83      open
  4                  145.42      open
  5                   89.63      open
  6                  764.59      open
  7                  344.33      open
  8                 1426.32      open
   
   
  Node Results at 11:15:00 hrs:
  ----------------------------------------------
                     Demand      Head  Pressure
  Node                 m3/h         m         m
  ----------------------------------------------
  1                  122.35    179.70     19.70
  2                  122.35    199.40     49.40
  3                  330.36    160.67     10.67
  4                  146.82    193.25     38.25
  5                  244.71    173.96     13.96
  6                  403.77    187.32     22.32
  7                -1370.36    210.00      0.00  Reservoir
   
   
  Link Results at 11:15:00 hrs:
  ------------------------------------
                       Flow     State
  Link                 m3/h          
  ------------------------------------
  1                  226.88      open
  2                  104.52      open
  3                 1021.13      open
  4                  139.71      open
  5                   86.12      open
  6                  734.59      open
  7                  330.82      open
  8                 1370.36      open
   
   
  Node Results at 11:30:00 hrs:
  ----------------------------------------------
                     Demand      Head  Pressure
  Node                 m3/h         m         m
  ----------------------------------------------
  1                  113.31    183.72     23.72
  2                  113.31    200.80     50.80
  3                  305.94    167.20     17.20
  4                  135.98    195.47     40.47
  5                  226.63    178.74     18.74
  6                  373.93    190.33     25.33
  7                -1269.10    210.00      0.00  Reservoir
   
   
  Link Results at 11:30:00 hrs:
  ------------------------------------
                       Flow     State
  Link                 m3/h          
  ------------------------------------
  1                  210.11      open
  2                   96.80      open
  3                  945.68      open
  4                  129.39      open
  5                   79.75      open
  6                  680.31      open
  7                  306.38      open
  8                 1269.10      open
   
   
  Node Results at 11:45:00 hrs:
  ----------------------------------------------
                     Demand      Head  Pressure
  Node                 m3/h         m         m
  ----------------------------------------------
  1                  117.96    181.69     21.69
  2                  117.96    200.09     50.09
  3                  318.49    163.90     13.90
  4                  141.55    194.35     39.35
  5                  235.92    176.33     16.33
  6                  389.26    188.81     23.81
  7                -1321.13    210.00      0.00  Reservoir
   
   
  Link Results at 11:45:00 hrs:
  ------------------------------------
                       Flow     State
  Link                 m3/h          
  ------------------------------------
  1                  218.73      open
  2                  100.77      open
  3                  984.44      open
  4                  134.70      open
  5                   83.02      open
  6                  708.20      open
  7                  318.94      open
  8                 1321.13      open
   
   
  Node Results at 12:00:00 hrs:
  ----------------------------------------------
                     Demand      Head  Pressure
  Node                 m3/h         m         m
  ----------------------------------------------
  1                  102.90    188.02     28.02
  2                  102.90    202.31     52.31
  3                  277.83    174.20     24.20
  4                  123.48    197.85     42.85
  5                  205.80    183.85     23.85
  6                  339.57    193.54     28.54
  7                -1152.47    210.00      0.00  Reservoir
   
   
  Link Results at 12:00:00 hrs:
  ------------------------------------
                       Flow     State
  Link                 m3/h          
  ------------------------------------
  1                  190.80      open
  2                   87.90      open
  3                  858.77      open
  4                  117.50      open
  5                   72.42      open
  6                  617.79      open
  7                  278.22      open
  8                 1152.47      open
   
   
  Node Results at 12:15:00 hrs:
  ----------------------------------------------
                     Demand      Head  Pressure
  Node                 m3/h         m         m
  ----------------------------------------------
  1                  105.32    187.05     27.05
  2                  105.32    201.97     51.97
  3                  284.37    172.62     22.62
  4                  126.39    197.31     42.31
  5                  210.65    182.70     22.70
  6                  347.57    192.82     27.82
  7                -1179.62    210.00      0.00  Reservoir
   
   
  Link Results at 12:15:00 hrs:
  ------------------------------------
                       Flow     State
  Link                 m3/h          
  ------------------------------------
  1                  195.30      open
  2                   89.98      open
  3                  879.00      open
  4                  120.27      open
  5                   74.13      open
  6                  632.34      open
  7                  284.78      open
  8                 1179.62      open
   
   
  Node Results at 12:30:00 hrs:
  ----------------------------------------------
                     Demand      Head  Pressure
  Node                 m3/h         m         m
  ----------------------------------------------
  1                   99.52    189.34     29.34
  2                   99.52    202.77     52.77
  3                  268.70    176.35     26.35
  4                  119.42    198.58     43.58
  5                  199.03    185.42     25.42
  6                  328.41    194.53     29.53
  7                -1114.59    210.00      0.00  Reservoir
   
   
  Link Results at 12:30:00 hrs:
  ------------------------------------
                       Flow     State
  Link                 m3/h          
  ------------------------------------
  1                  184.53      open
  2                   85.02      open
  3                  830.54      open
  4                  113.64      open
  5                   70.04      open
  6                  597.48      open
  7                  269.08      open
  8                 1114.59      open
   
   
  Node Results at 12:45:00 hrs:
  ----------------------------------------------
                     Demand      Head  Pressure
  Node                 m3/h         m         m
  ----------------------------------------------
  1                  102.66    188.11     28.11
  2                  102.66    202.34     52.34
  3                  277.18    174.36     24.36
  4                  123.19    197.90     42.90
  5                  205.32    183.96     23.96
  6                  338.77    193.61     28.61
  7                -1149.78    210.00      0.00  Reservoir
   
   
  Link Results at 12:45:00 hrs:
  ------------------------------------
                       Flow     State
  Link                 m3/h          
  ------------------------------------
  1                  190.36      open
  2                   87.70      open
  3                  856.76      open
  4                  117.23      open
  5                   72.25      open
  6                  616.34      open
  7                  277.57      open
  8                 1149.78      open
   
   
  Node Results at 13:00:00 hrs:
  ----------------------------------------------
                     Demand      Head  Pressure
  Node                 m3/h         m         m
  ----------------------------------------------
  1                   97.96    189.93     29.93
  2                   97.96    202.98     52.98
  3                  264.48    177.32     27.32
  4                  117.55    198.90     43.90
  5                  195.91    186.13     26.13
  6                  323.26    194.98     29.98
  7                -1097.12    210.00      0.00  Reservoir
   
   
  Link Results at 13:00:00 hrs:
  ------------------------------------
                       Flow     State
  Link                 m3/h          
  ------------------------------------
  1                  181.64      open
  2                   83.68      open
  3                  817.52      open
  4                  111.86      open
  5                   68.94      open
  6                  588.12      open
  7                  264.86      open
  8                 1097.12      open
   
   
  Node Results at 13:15:00 hrs:
  ----------------------------------------------
                     Demand      Head  Pressure
  Node                 m3/h         m         m
  ----------------------------------------------
  1                   95.21    190.96     30.96
  2                   95.21    203.34     53.34
  3                  257.07    179.00     29.00
  4                  114.25    199.47     44.47
  5                  190.42    187.35     27.35
  6                  314.20    195.75     30.75
  7                -1066.38    210.00      0.00  Reservoir
   
   
  Link Results at 13:15:00 hrs:
  ------------------------------------
                       Flow     State
  Link                 m3/h          
  ------------------------------------
  1                  176.55      open
  2                   81.34      open
  3                  794.61      open
  4                  108.72      open
  5                   67.01      open
  6                  571.64      open
  7                  257.44      open
  8                 1066.38      open
   
   
  Node Results at 13:30:00 hrs:
  ----------------------------------------------
                     Demand      Head  Pressure
  Node                 m3/h         m         m
  ----------------------------------------------
  1                  100.24    189.06     29.06
  2                  100.24    202.67     52.67
  3                  270.65    175.90     25.90
  4                  120.29    198.42     43.42
  5                  200.48    185.09     25.09
  6                  330.79    194.32     29.32
  7                -1122.70    210.00      0.00  Reservoir
   
   
  Link Results at 13:30:00 hrs:
  ------------------------------------
                       Flow     State
  Link                 m3/h          
  ------------------------------------
  1                  185.87      open
  2                   85.63      open
  3                  836.58      open
  4                  114.46      open
  5                   70.55      open
  6                  601.83      open
  7                  271.03      open
  8                 1122.70      open
   
   
  Node Results at 13:45:00 hrs:
  ----------------------------------------------
                     Demand      Head  Pressure
  Node                 m3/h         m         m
  ----------------------------------------------
  1                  102.32    188.24     28.24
  2                  102.32    202.39     52.39
  3                  276.27    174.57     24.57
  4                  122.79    197.97     42.97
  5                  204.65    184.12     24.12
  6                  337.67    193.71     28.71
  7                -1146.02    210.00      0.00  Reservoir
   
   
  Link Results at 13:45:00 hrs:
  ------------------------------------
                       Flow     State
  Link                 m3/h          
  ------------------------------------
  1                  189.74      open
  2                   87.41      open
  3                  853.96      open
  4                  116.84      open
  5                   72.02      open
  6                  614.33      open
  7                  276.66      open
  8                 1146.02      open
   
   
  Node Results at 14:00:00 hrs:
  ----------------------------------------------
                     Demand      Head  Pressure
  Node                 m3/h         m         m
  ----------------------------------------------
  1                  100.27    189.05     29.05
  2                  100.27    202.67     52.67
  3                  270.72    175.88     25.88
  4                  120.32    198.42     43.42
  5                  200.53    185.08     25.08
  6                  330.88    194.31     29.31
  7                -1122.98    210.00      0.00  Reservoir
   
   
  Link Results at 14:00:00 hrs:
  ------------------------------------
                       Flow     State
  Link                 m3/h          
  ------------------------------------
  1                  185.92      open
  2                   85.66      open
  3                  836.79      open
  4                  114.49      open
  5                   70.57      open
  6                  601.98      open
  7                  271.10      open
  8                 1122.98      open
   
   
  Node Results at 14:15:00 hrs:
  ----------------------------------------------
                     Demand      Head  Pressure
  Node                 m3/h         m         m
  ----------------------------------------------
  1                   99.30    189.42     29.42
  2                   99.30    202.80     52.80
  3                  268.10    176.49     26.49
  4                  119.16    198.62     43.62
  5                  198.59    185.52     25.52
  6                  327.68    194.59     29.59
  7                -1112.12    210.00      0.00  Reservoir
   
   
  Link Results at 14:15:00 hrs:
  ------------------------------------
                       Flow     State
  Link                 m3/h          
  ------------------------------------
  1                  184.12      open
  2                   84.83      open
  3                  828.70      open
  4                  113.39      open
  5                   69.89      open
  6                  596.16      open
  7                  268.48      open
  8                 1112.12      open
   
   
  Node Results at 14:30:00 hrs:
  ----------------------------------------------
                     Demand      Head  Pressure
  Node                 m3/h         m         m
  ----------------------------------------------
  1                   92.95    191.79     31.79
  2                   92.95    203.63     53.63
  3                  250.97    180.35     30.35
  4                  111.54    199.93     44.93
  5                  185.90    188.34     28.34
  6                  306.74    196.37     31.37
  7                -1041.05    210.00      0.00  Reservoir
   
   
  Link Results at 14:30:00 hrs:
  ------------------------------------
                       Flow     State
  Link                 m3/h          
  ------------------------------------
  1                  172.36      open
  2                   79.41      open
  3                  775.74      open
  4                  106.14      open
  5                   65.42      open
  6                  558.06      open
  7                  251.32      open
  8                 1041.05      open
   
   
  Node Results at 14:45:00 hrs:
  ----------------------------------------------
                     Demand      Head  Pressure
  Node                 m3/h         m         m
  ----------------------------------------------
  1                   91.10    192.45     32.45
  2                   91.10    203.86     53.86
  3                  245.98    181.43     31.43
  4                  109.33    200.30     45.30
  5                  182.21    189.13     29.13
  6                  300.65    196.86     31.86
  7                -1020.37    210.00      0.00  Reservoir
   
   
  Link Results at 14:45:00 hrs:
  ------------------------------------
                       Flow     State
  Link                 m3/h          
  ------------------------------------
  1                  168.93      open
  2                   77.83      open
  3                  760.33      open
  4                  104.03      open
  5                   64.12      open
  6                  546.98      open
  7                  246.33      open
  8                 1020.37      open
   
   
  Node Results at 15:00:00 hrs:
  ----------------------------------------------
                     Demand      Head  Pressure
  Node                 m3/h         m         m
  ----------------------------------------------
  1                   87.58    193.69     33.69
  2                   87.58    204.29     54.29
  3                  236.46    183.44     33.44
  4                  105.10    200.98     45.98
  5                  175.16    190.60     30.60
  6                  289.01    197.79     32.79
  7                 -980.89    210.00      0.00  Reservoir
   
   
  Link Results at 15:00:00 hrs:
  ------------------------------------
                       Flow     State
  Link                 m3/h          
  ------------------------------------
  1                  162.40      open
  2                   74.82      open
  3                  730.91      open
  4                  100.01      open
  5                   61.64      open
  6                  525.81      open
  7                  236.80      open
  8                  980.89      open
   
   
  Node Results at 15:15:00 hrs:
  ----------------------------------------------
                     Demand      Head  Pressure
  Node                 m3/h         m         m
  ----------------------------------------------
  1                   87.29    193.79     33.79
  2                   87.29    204.33     54.33
  3                  235.69    183.60     33.60
  4                  104.75    201.04     46.04
  5                  174.59    190.72     30.72
  6                  288.07    197.86     32.86
  7                 -977.69    210.00      0.00  Reservoir
   
   
  Link Results at 15:15:00 hrs:
  ------------------------------------
                       Flow     State
  Link                 m3/h          
  ------------------------------------
  1                  161.87      open
  2                   74.57      open
  3                  728.53      open
  4                   99.68      open
  5                   61.44      open
  6                  524.09      open
  7                  236.03      open
  8                  977.69      open
   
   
  Node Results at 15:30:00 hrs:
  ----------------------------------------------
                     Demand      Head  Pressure
  Node                 m3/h         m         m
  ----------------------------------------------
  1                   85.30    194.47     34.47
  2                   85.30    204.57     54.57
  3                  230.30    184.71     34.71
  4                  102.36    201.41     46.41
  5                  170.59    191.53     31.53
  6                  281.48    198.37     33.37
  7                 -955.32    210.00      0.00  Reservoir
   
   
  Link Results at 15:30:00 hrs:
  ------------------------------------
                       Flow     State
  Link                 m3/h          
  ------------------------------------
  1                  158.16      open
  2                   72.87      open
  3                  711.86      open
  4                   97.40      open
  5                   60.03      open
  6                  512.11      open
  7                  230.63      open
  8                  955.32      open
   
   
  Node Results at 15:45:00 hrs:
  ----------------------------------------------
                     Demand      Head  Pressure
  Node                 m3/h         m         m
  ----------------------------------------------
  1                   82.56    195.38     35.38
  2                   82.56    204.88     54.88
  3                  222.90    186.19     36.19
  4                   99.07    201.92     46.92
  5                  165.11    192.61     32.61
  6                  272.43    199.06     34.06
  7                 -924.63    210.00      0.00  Reservoir
   
   
  Link Results at 15:45:00 hrs:
  ------------------------------------
                       Flow     State
  Link                 m3/h          
  ------------------------------------
  1                  153.08      open
  2                   70.53      open
  3                  688.99      open
  4                   94.27      open
  5                   58.11      open
  6                  495.65      open
  7                  223.22      open
  8                  924.63      open
   
   
  Node Results at 16:00:00 hrs:
  ----------------------------------------------
                     Demand      Head  Pressure
  Node                 m3/h         m         m
  ----------------------------------------------
  1                   90.64    192.62     32.62
  2                   90.64    203.92     53.92
  3                  244.72    181.70     31.70
  4                  108.77    200.39     45.39
  5                  181.28    189.33     29.33
  6                  299.11    196.99     31.99
  7                -1015.15    210.00      0.00  Reservoir
   
   
  Link Results at 16:00:00 hrs:
  ------------------------------------
                       Flow     State
  Link                 m3/h          
  ------------------------------------
  1                  168.07      open
  2                   77.43      open
  3                  756.45      open
  4                  103.50      open
  5                   63.79      open
  6                  544.18      open
  7                  245.07      open
  8                 1015.15      open
   
   
  Node Results at 16:15:00 hrs:
  ----------------------------------------------
                     Demand      Head  Pressure
  Node                 m3/h         m         m
  ----------------------------------------------
  1                   90.52    192.66     32.66
  2                   90.52    203.93     53.93
  3                  244.40    181.77     31.77
  4                  108.62    200.41     45.41
  5                  181.04    189.38     29.38
  6                  298.71    197.02     32.02
  7                -1013.81    210.00      0.00  Reservoir
   
   
  Link Results at 16:15:00 hrs:
  ------------------------------------
                       Flow     State
  Link                 m3/h          
  ------------------------------------
  1                  167.85      open
  2                   77.33      open
  3                  755.44      open
  4                  103.36      open
  5                   63.71      open
  6                  543.46      open
  7                  244.75      open
  8                 1013.81      open
   
   
  Node Results at 16:30:00 hrs:
  ----------------------------------------------
                     Demand      Head  Pressure
  Node                 m3/h         m         m
  ----------------------------------------------
  1                   88.31    193.44     33.44
  2                   88.31    204.20     54.20
  3                  238.44    183.03     33.03
  4                  105.97    200.84     45.84
  5                  176.62    190.30     30.30
  6                  291.43    197.60     32.60
  7                 -989.09    210.00      0.00  Reservoir
   
   
  Link Results at 16:30:00 hrs:
  ------------------------------------
                       Flow     State
  Link                 m3/h          
  ------------------------------------
  1                  163.75      open
  2                   75.44      open
  3                  737.03      open
  4                  100.84      open
  5                   62.16      open
  6                  530.21      open
  7                  238.78      open
  8                  989.09      open
   
   
  Node Results at 16:45:00 hrs:
  ----------------------------------------------
                     Demand      Head  Pressure
  Node                 m3/h         m         m
  ----------------------------------------------
  1                   99.01    189.53     29.53
  2                   99.01    202.84     52.84
  3                  267.33    176.67     26.67
  4                  118.81    198.68     43.68
  5                  198.02    185.65     25.65
  6                  326.74    194.68     29.68
  7                -1108.93    210.00      0.00  Reservoir
   
   
  Link Results at 16:45:00 hrs:
  ------------------------------------
                       Flow     State
  Link                 m3/h          
  ------------------------------------
  1                  183.59      open
  2                   84.58      open
  3                  826.32      open
  4                  113.06      open
  5                   69.69      open
  6                  594.45      open
  7                  267.71      open
  8                 1108.93      open
   
   
  Node Results at 17:00:00 hrs:
  ----------------------------------------------
                     Demand      Head  Pressure
  Node                 m3/h         m         m
  ----------------------------------------------
  1                   96.37    190.53     30.53
  2                   96.37    203.19     53.19
  3                  260.20    178.29     28.29
  4                  115.65    199.24     44.24
  5                  192.74    186.84     26.84
  6                  318.02    195.42     30.42
  7                -1079.35    210.00      0.00  Reservoir
   
   
  Link Results at 17:00:00 hrs:
  ------------------------------------
                       Flow     State
  Link                 m3/h          
  ------------------------------------
  1                  178.70      open
  2                   82.33      open
  3                  804.28      open
  4                  110.05      open
  5                   67.83      open
  6                  578.59      open
  7                  260.57      open
  8                 1079.35      open
   
   
  Node Results at 17:15:00 hrs:
  ----------------------------------------------
                     Demand      Head  Pressure
  Node                 m3/h         m         m
  ----------------------------------------------
  1                  102.88    188.02     28.02
  2                  102.88    202.31     52.31
  3                  277.77    174.22     24.22
  4                  123.45    197.85     42.85
  5                  205.76    183.86     23.86
  6                  339.50    193.55     28.55
  7                -1152.23    210.00      0.00  Reservoir
   
   
  Link Results at 17:15:00 hrs:
  ------------------------------------
                       Flow     State
  Link                 m3/h          
  ------------------------------------
  1                  190.76      open
  2                   87.89      open
  3                  858.59      open
  4                  117.48      open
  5                   72.41      open
  6                  617.66      open
  7                  278.16      open
  8                 1152.23      open
   
   
  Node Results at 17:30:00 hrs:
  ----------------------------------------------
                     Demand      Head  Pressure
  Node                 m3/h         m         m
  ----------------------------------------------
  1                  108.26    185.85     25.85
  2                  108.26    201.55     51.55
  3                  292.31    170.67     20.67
  4                  129.92    196.65     41.65
  5                  216.53    181.27     21.27
  6                  357.27    191.92     26.92
  7                -1212.56    210.00      0.00  Reservoir
   
   
  Link Results at 17:30:00 hrs:
  ------------------------------------
                       Flow     State
  Link                 m3/h          
  ------------------------------------
  1                  200.75      open
  2                   92.49      open
  3                  903.55      open
  4                  123.63      open
  5                   76.20      open
  6                  650.00      open
  7                  292.73      open
  8                 1212.56      open
   
   
  Node Results at 17:45:00 hrs:
  ----------------------------------------------
                     Demand      Head  Pressure
  Node                 m3/h         m         m
  ----------------------------------------------
  1                  108.19    185.88     25.88
  2                  108.19    201.56     51.56
  3                  292.10    170.72     20.72
  4                  129.82    196.66     41.66
  5                  216.37    181.31     21.31
  6                  357.01    191.94     26.94
  7                -1211.68    210.00      0.00  Reservoir
   
   
  Link Results at 17:45:00 hrs:
  ------------------------------------
                       Flow     State
  Link                 m3/h          
  ------------------------------------
  1                  200.61      open
  2                   92.42      open
  3                  902.89      open
  4                  123.54      open
  5                   76.14      open
  6                  649.53      open
  7                  292.52      open
  8                 1211.68      open
   
   
  Node Results at 18:00:00 hrs:
  ----------------------------------------------
                     Demand      Head  Pressure
  Node                 m3/h         m         m
  ----------------------------------------------
  1                  115.01    182.98     22.98
  2                  115.01    200.55     50.55
  3                  310.54    166.01     16.01
  4                  138.02    195.06     40.06
  5                  230.03    177.87     17.87
  6                  379.54    189.78     24.78
  7                -1288.15    210.00      0.00  Reservoir
   
   
  Link Results at 18:00:00 hrs:
  ------------------------------------
                       Flow     State
  Link                 m3/h          
  ------------------------------------
  1                  213.27      open
  2                   98.25      open
  3                  959.87      open
  4                  131.33      open
  5                   80.95      open
  6                  690.52      open
  7                  310.98      open
  8                 1288.15      open
   
   
  Node Results at 18:15:00 hrs:
  ----------------------------------------------
                     Demand      Head  Pressure
  Node                 m3/h         m         m
  ----------------------------------------------
  1                  106.80    186.45     26.45
  2                  106.80    201.76     51.76
  3                  288.35    171.65     21.65
  4                  128.16    196.98     41.98
  5                  213.59    181.99     21.99
  6                  352.43    192.37     27.37
  7                -1196.13    210.00      0.00  Reservoir
   
   
  Link Results at 18:15:00 hrs:
  ------------------------------------
                       Flow     State
  Link                 m3/h          
  ------------------------------------
[...]
   
  Link Results at 667:30:00 hrs:
  ------------------------------------
                       Flow     State
  Link                 m3/h          
  ------------------------------------
  1                  226.05      open
  2                  104.14      open
  3                 1017.42      open
  4                  139.21      open
  5                   85.80      open
  6                  731.92      open
  7                  329.62      open
  8                 1365.39      open
   
   
  Node Results at 667:45:00 hrs:
  ----------------------------------------------
                     Demand      Head  Pressure
  Node                 m3/h         m         m
  ----------------------------------------------
  1                  135.77    173.27     13.27
  2                  135.77    197.15     47.15
  3                  366.57    150.19      0.19
  4                  162.92    189.69     34.69
  5                  271.53    166.31      6.31
  6                  448.03    182.50     17.50
  7                -1520.59    210.00      0.00  Reservoir
   
   
  Link Results at 667:45:00 hrs:
  ------------------------------------
                       Flow     State
  Link                 m3/h          
  ------------------------------------
  1                  251.75      open
  2                  115.98      open
  3                 1133.08      open
  4                  155.03      open
  5                   95.56      open
  6                  815.12      open
  7                  367.09      open
  8                 1520.59      open
   
   
  Node Results at 668:00:00 hrs:
  ----------------------------------------------
                     Demand      Head  Pressure
  Node                 m3/h         m         m
  ----------------------------------------------
  1                  128.66    176.75     16.75
  2                  128.66    198.36     48.36
  3                  347.39    155.85      5.85
  4                  154.40    191.62     36.62
  5                  257.33    170.45     10.45
  6                  424.59    185.11     20.11
  7                -1441.04    210.00      0.00  Reservoir
   
   
  Link Results at 668:00:00 hrs:
  ------------------------------------
                       Flow     State
  Link                 m3/h          
  ------------------------------------
  1                  238.58      open
  2                  109.91      open
  3                 1073.80      open
  4                  146.92      open
  5                   90.56      open
  6                  772.48      open
  7                  347.89      open
  8                 1441.04      open
   
   
  Node Results at 668:15:00 hrs:
  ----------------------------------------------
                     Demand      Head  Pressure
  Node                 m3/h         m         m
  ----------------------------------------------
  1                  132.23    175.02     15.02
  2                  132.23    197.76     47.76
  3                  357.02    153.04      3.04
  4                  158.67    190.66     35.66
  5                  264.46    168.39      8.39
  6                  436.35    183.81     18.81
  7                -1480.96    210.00      0.00  Reservoir
   
   
  Link Results at 668:15:00 hrs:
  ------------------------------------
                       Flow     State
  Link                 m3/h          
  ------------------------------------
  1                  245.19      open
  2                  112.96      open
  3                 1103.54      open
  4                  150.99      open
  5                   93.07      open
  6                  793.87      open
  7                  357.52      open
  8                 1480.96      open
   
   
  Node Results at 668:30:00 hrs:
  ----------------------------------------------
                     Demand      Head  Pressure
  Node                 m3/h         m         m
  ----------------------------------------------
  1                  136.25    173.14     13.14
  2                  136.25    197.09     47.09
  3                  366.14    150.10      0.10
  4                  163.50    189.60     34.60
  5                  272.51    166.12      6.12
  6                  449.64    182.37     17.37
  7                -1524.30    210.00      0.00  Reservoir
   
   
  Link Results at 668:30:00 hrs:
  ------------------------------------
                       Flow     State
  Link                 m3/h          
  ------------------------------------
  1                  252.13      open
  2                  115.88      open
  3                 1135.91      open
  4                  155.02      open
  5                   95.24      open
  6                  817.39      open
  7                  367.75      open
  8                 1524.30      open
   
   
  Node Results at 668:45:00 hrs:
  ----------------------------------------------
                     Demand      Head  Pressure
  Node                 m3/h         m         m
  ----------------------------------------------
  1                  126.54    177.75     17.75
  2                  126.54    198.72     48.72
  3                  341.67    157.49      7.49
  4                  151.85    192.17     37.17
  5                  253.09    171.65     11.65
  6                  417.59    185.86     20.86
  7                -1417.28    210.00      0.00  Reservoir
   
   
  Link Results at 668:45:00 hrs:
  ------------------------------------
                       Flow     State
  Link                 m3/h          
  ------------------------------------
  1                  234.65      open
  2                  108.10      open
  3                 1056.09      open
  4                  144.50      open
  5                   89.06      open
  6                  759.74      open
  7                  342.15      open
  8                 1417.28      open
   
   
  Node Results at 669:00:00 hrs:
  ----------------------------------------------
                     Demand      Head  Pressure
  Node                 m3/h         m         m
  ----------------------------------------------
  1                  136.46    173.10     13.10
  2                  136.46    197.07     47.07
  3                  365.75    150.10      0.10
  4                  163.75    189.56     34.56
  5                  272.92    166.06      6.06
  6                  450.32    182.32     17.32
  7                -1525.67    210.00      0.00  Reservoir
   
   
  Link Results at 669:00:00 hrs:
  ------------------------------------
                       Flow     State
  Link                 m3/h          
  ------------------------------------
  1                  252.23      open
  2                  115.77      open
  3                 1136.98      open
  4                  154.95      open
  5                   95.03      open
  6                  818.28      open
  7                  367.96      open
  8                 1525.67      open
   
   
  Node Results at 669:15:00 hrs:
  ----------------------------------------------
                     Demand      Head  Pressure
  Node                 m3/h         m         m
  ----------------------------------------------
  1                  123.74    179.07     19.07
  2                  123.74    199.18     49.18
  3                  334.09    159.63      9.63
  4                  148.49    192.90     37.90
  5                  247.48    173.21     13.21
  6                  408.34    186.84     21.84
  7                -1385.87    210.00      0.00  Reservoir
   
   
  Link Results at 669:15:00 hrs:
  ------------------------------------
                       Flow     State
  Link                 m3/h          
  ------------------------------------
  1                  229.45      open
  2                  105.71      open
  3                 1032.69      open
  4                  141.30      open
  5                   87.09      open
  6                  742.90      open
  7                  334.57      open
  8                 1385.87      open
   
   
  Node Results at 669:30:00 hrs:
  ----------------------------------------------
                     Demand      Head  Pressure
  Node                 m3/h         m         m
  ----------------------------------------------
  1                  125.71    178.14     18.14
  2                  125.71    198.85     48.85
  3                  339.43    158.13      8.13
  4                  150.86    192.39     37.39
  5                  251.43    172.11     12.11
  6                  414.86    186.15     21.15
  7                -1408.00    210.00      0.00  Reservoir
   
   
  Link Results at 669:30:00 hrs:
  ------------------------------------
                       Flow     State
  Link                 m3/h          
  ------------------------------------
  1                  233.11      open
  2                  107.39      open
  3                 1049.18      open
  4                  143.55      open
  5                   88.48      open
  6                  754.77      open
  7                  339.91      open
  8                 1408.00      open
   
   
  Node Results at 669:45:00 hrs:
  ----------------------------------------------
                     Demand      Head  Pressure
  Node                 m3/h         m         m
  ----------------------------------------------
  1                  127.26    177.41     17.41
  2                  127.26    198.60     48.60
  3                  343.61    156.94      6.94
  4                  152.71    191.98     36.98
  5                  254.52    171.24     11.24
  6                  419.97    185.61     20.61
  7                -1425.34    210.00      0.00  Reservoir
   
   
  Link Results at 669:45:00 hrs:
  ------------------------------------
                       Flow     State
  Link                 m3/h          
  ------------------------------------
  1                  235.98      open
  2                  108.72      open
  3                 1062.10      open
  4                  145.32      open
  5                   89.57      open
  6                  764.06      open
  7                  344.10      open
  8                 1425.34      open
   
   
  Node Results at 670:00:00 hrs:
  ----------------------------------------------
                     Demand      Head  Pressure
  Node                 m3/h         m         m
  ----------------------------------------------
  1                  133.44    174.42     14.42
  2                  133.44    197.55     47.55
  3                  360.29    152.07      2.07
  4                  160.13    190.33     35.33
  5                  266.88    167.68      7.68
  6                  440.36    183.37     18.37
  7                -1494.56    210.00      0.00  Reservoir
   
   
  Link Results at 670:00:00 hrs:
  ------------------------------------
                       Flow     State
  Link                 m3/h          
  ------------------------------------
  1                  247.44      open
  2                  114.00      open
  3                 1113.67      open
  4                  152.38      open
  5                   93.92      open
  6                  801.17      open
  7                  360.81      open
  8                 1494.56      open
   
   
  Node Results at 670:15:00 hrs:
  ----------------------------------------------
                     Demand      Head  Pressure
  Node                 m3/h         m         m
  ----------------------------------------------
  1                  127.17    177.46     17.46
  2                  127.17    198.61     48.61
  3                  343.37    157.01      7.01
  4                  152.61    192.01     37.01
  5                  254.34    171.29     11.29
  6                  419.67    185.64     20.64
  7                -1424.33    210.00      0.00  Reservoir
   
   
  Link Results at 670:15:00 hrs:
  ------------------------------------
                       Flow     State
  Link                 m3/h          
  ------------------------------------
  1                  235.81      open
  2                  108.64      open
  3                 1061.34      open
  4                  145.22      open
  5                   89.51      open
  6                  763.52      open
  7                  343.85      open
  8                 1424.33      open
   
   
  Node Results at 670:30:00 hrs:
  ----------------------------------------------
                     Demand      Head  Pressure
  Node                 m3/h         m         m
  ----------------------------------------------
  1                  119.27    181.10     21.10
  2                  119.27    199.89     49.89
  3                  322.03    162.94     12.94
  4                  143.13    194.02     39.02
  5                  238.54    175.63     15.63
  6                  393.59    188.37     23.37
  7                -1335.83    210.00      0.00  Reservoir
   
   
  Link Results at 670:30:00 hrs:
  ------------------------------------
                       Flow     State
  Link                 m3/h          
  ------------------------------------
  1                  221.16      open
  2                  101.89      open
  3                  995.40      open
  4                  136.19      open
  5                   83.95      open
  6                  716.08      open
  7                  322.49      open
  8                 1335.83      open
   
   
  Node Results at 670:45:00 hrs:
  ----------------------------------------------
                     Demand      Head  Pressure
  Node                 m3/h         m         m
  ----------------------------------------------
  1                  122.98    179.41     19.41
  2                  122.98    199.30     49.30
  3                  332.05    160.20     10.20
  4                  147.58    193.09     38.09
  5                  245.97    173.62     13.62
  6                  405.84    187.10     22.10
  7                -1377.41    210.00      0.00  Reservoir
   
   
  Link Results at 670:45:00 hrs:
  ------------------------------------
                       Flow     State
  Link                 m3/h          
  ------------------------------------
  1                  228.04      open
  2                  105.06      open
  3                 1026.38      open
  4                  140.43      open
  5                   86.56      open
  6                  738.37      open
  7                  332.52      open
  8                 1377.41      open
   
   
  Node Results at 671:00:00 hrs:
  ----------------------------------------------
                     Demand      Head  Pressure
  Node                 m3/h         m         m
  ----------------------------------------------
  1                  116.24    182.45     22.45
  2                  116.24    200.36     50.36
  3                  313.84    165.14     15.14
  4                  139.48    194.77     39.77
  5                  232.47    177.23     17.23
  6                  383.58    189.38     24.38
  7                -1301.84    210.00      0.00  Reservoir
   
   
  Link Results at 671:00:00 hrs:
  ------------------------------------
                       Flow     State
  Link                 m3/h          
  ------------------------------------
  1                  215.53      open
  2                   99.30      open
  3                  970.07      open
  4                  132.73      open
  5                   81.81      open
  6                  697.86      open
  7                  314.28      open
  8                 1301.84      open
   
   
  Node Results at 671:15:00 hrs:
  ----------------------------------------------
                     Demand      Head  Pressure
  Node                 m3/h         m         m
  ----------------------------------------------
  1                  118.05    181.65     21.65
  2                  118.05    200.08     50.08
  3                  318.73    163.83     13.83
  4                  141.66    194.33     39.33
  5                  236.10    176.28     16.28
  6                  389.56    188.78     23.78
  7                -1322.13    210.00      0.00  Reservoir
   
   
  Link Results at 671:15:00 hrs:
  ------------------------------------
                       Flow     State
  Link                 m3/h          
  ------------------------------------
  1                  218.89      open
  2                  100.85      open
  3                  985.19      open
  4                  134.80      open
  5                   83.09      open
  6                  708.74      open
  7                  319.18      open
  8                 1322.13      open
   
   
  Node Results at 671:30:00 hrs:
  ----------------------------------------------
                     Demand      Head  Pressure
  Node                 m3/h         m         m
  ----------------------------------------------
  1                  106.53    186.56     26.56
  2                  106.53    201.80     51.80
  3                  287.62    171.83     21.83
  4                  127.83    197.04     42.04
  5                  213.05    182.12     22.12
  6                  351.53    192.45     27.45
  7                -1193.08    210.00      0.00  Reservoir
   
   
  Link Results at 671:30:00 hrs:
  ------------------------------------
                       Flow     State
  Link                 m3/h          
  ------------------------------------
  1                  197.53      open
  2                   91.00      open
  3                  889.03      open
  4                  121.64      open
  5                   74.98      open
  6                  639.56      open
  7                  288.03      open
  8                 1193.08      open
   
   
  Node Results at 671:45:00 hrs:
  ----------------------------------------------
                     Demand      Head  Pressure
  Node                 m3/h         m         m
  ----------------------------------------------
  1                  100.10    189.11     29.11
  2                  100.10    202.69     52.69
  3                  270.28    175.98     25.98
  4                  120.12    198.45     43.45
  5                  200.20    185.15     25.15
  6                  330.34    194.36     29.36
  7                -1121.15    210.00      0.00  Reservoir
   
   
  Link Results at 671:45:00 hrs:
  ------------------------------------
                       Flow     State
  Link                 m3/h          
  ------------------------------------
  1                  185.62      open
  2                   85.52      open
  3                  835.43      open
  4                  114.31      open
  5                   70.45      open
  6                  601.00      open
  7                  270.66      open
  8                 1121.15      open
   
   
  Node Results at 672:00:00 hrs:
  ----------------------------------------------
                     Demand      Head  Pressure
  Node                 m3/h         m         m
  ----------------------------------------------
  1                   96.35    190.54     30.54
  2                   96.35    203.19     53.19
  3                  260.15    178.31     28.31
  4                  115.62    199.24     44.24
  5                  192.70    186.85     26.85
  6                  317.96    195.43     30.43
  7                -1079.13    210.00      0.00  Reservoir
   
   
  Link Results at 672:00:00 hrs:
  ------------------------------------
                       Flow     State
  Link                 m3/h          
  ------------------------------------
  1                  178.66      open
  2                   82.31      open
  3                  804.12      open
  4                  110.02      open
  5                   67.81      open
  6                  578.47      open
  7                  260.52      open
  8                 1079.13      open
   
  Analysis ended Tue Mar  7 12:01:39 2023
