  Page 1                                    Wed Mar  1 15:52:27 2023

  ******************************************************************
  *                           E P A N E T                          *
  *                   Hydraulic and Water Quality                  *
  *                   Analysis for Pipe Networks                   *
  *                         Version 2.2                            *
  ******************************************************************
  
  Analysis begun Wed Mar  1 15:52:27 2023

   
  Node Results at 0:00:00 hrs:
  ----------------------------------------------
                     Demand      Head  Pressure
  Node                 m3/h         m         m
  ----------------------------------------------
  1                   93.18    191.71     31.71
  2                   93.18    203.60     53.60
  3                  251.57    180.21     30.21
  4                  111.81    199.89     44.89
  5                  186.35    188.24     28.24
  6                  307.48    196.31     31.31
  7                -1043.56    210.00      0.00  Reservoir
   
   
  Link Results at 0:00:00 hrs:
  ------------------------------------
                       Flow     State
  Link                 m3/h          
  ------------------------------------
  1                  172.77      open
  2                   79.60      open
  3                  777.62      open
  4                  106.40      open
  5                   65.58      open
  6                  559.41      open
  7                  251.93      open
  8                 1043.56      open
   
   
  Node Results at 0:15:00 hrs:
  ----------------------------------------------
                     Demand      Head  Pressure
  Node                 m3/h         m         m
  ----------------------------------------------
  1                   80.03    196.20     36.20
  2                   80.03    205.17     55.17
  3                  216.08    187.53     37.53
  4                   96.04    202.37     47.37
  5                  160.06    193.58     33.58
  6                  264.10    199.67     34.67
  7                 -896.33    210.00      0.00  Reservoir
   
   
  Link Results at 0:15:00 hrs:
  ------------------------------------
                       Flow     State
  Link                 m3/h          
  ------------------------------------
  1                  148.40      open
  2                   68.37      open
  3                  667.90      open
  4                   91.39      open
  5                   56.33      open
  6                  480.48      open
  7                  216.39      open
  8                  896.33      open
   
   
  Node Results at 0:30:00 hrs:
  ----------------------------------------------
                     Demand      Head  Pressure
  Node                 m3/h         m         m
  ----------------------------------------------
  1                   72.48    198.51     38.51
  2                   72.48    205.98     55.98
  3                  195.71    191.29     41.29
  4                   86.98    203.65     48.65
  5                  144.97    196.33     36.33
  6                  239.20    201.40     36.40
  7                 -811.83    210.00      0.00  Reservoir
   
   
  Link Results at 0:30:00 hrs:
  ------------------------------------
                       Flow     State
  Link                 m3/h          
  ------------------------------------
  1                  134.41      open
  2                   61.92      open
  3                  604.94      open
  4                   82.77      open
  5                   51.02      open
  6                  435.19      open
  7                  195.99      open
  8                  811.83      open
   
   
  Node Results at 0:45:00 hrs:
  ----------------------------------------------
                     Demand      Head  Pressure
  Node                 m3/h         m         m
  ----------------------------------------------
  1                   67.65    199.89     39.89
  2                   67.65    206.46     56.46
  3                  182.65    193.54     43.54
  4                   81.18    204.41     49.41
  5                  135.30    197.97     37.97
  6                  223.24    202.43     37.43
  7                 -757.65    210.00      0.00  Reservoir
   
   
  Link Results at 0:45:00 hrs:
  ------------------------------------
                       Flow     State
  Link                 m3/h          
  ------------------------------------
  1                  125.44      open
  2                   57.79      open
  3                  564.57      open
  4                   77.25      open
  5                   47.61      open
  6                  406.14      open
  7                  182.91      open
  8                  757.65      open
   
   
  Node Results at 1:00:00 hrs:
  ----------------------------------------------
                     Demand      Head  Pressure
  Node                 m3/h         m         m
  ----------------------------------------------
  1                   62.24    201.34     41.34
  2                   62.24    206.97     56.97
  3                  168.05    195.89     45.89
  4                   74.69    205.21     50.21
  5                  124.48    199.69     39.69
  6                  205.40    203.51     38.51
  7                 -697.10    210.00      0.00  Reservoir
   
   
  Link Results at 1:00:00 hrs:
  ------------------------------------
                       Flow     State
  Link                 m3/h          
  ------------------------------------
  1                  115.41      open
  2                   53.17      open
  3                  519.45      open
  4                   71.07      open
  5                   43.81      open
  6                  373.69      open
  7                  168.29      open
  8                  697.10      open
   
   
  Node Results at 1:15:00 hrs:
  ----------------------------------------------
                     Demand      Head  Pressure
  Node                 m3/h         m         m
  ----------------------------------------------
  1                   55.40    203.02     43.02
  2                   55.40    207.56     57.56
  3                  149.58    198.63     48.63
  4                   66.48    206.14     51.14
  5                  110.80    201.69     41.69
  6                  182.82    204.77     39.77
  7                 -620.48    210.00      0.00  Reservoir
   
   
  Link Results at 1:15:00 hrs:
  ------------------------------------
                       Flow     State
  Link                 m3/h          
  ------------------------------------
  1                  102.73      open
  2                   47.33      open
  3                  462.35      open
  4                   63.26      open
  5                   38.99      open
  6                  332.61      open
  7                  149.79      open
  8                  620.48      open
   
   
  Node Results at 1:30:00 hrs:
  ----------------------------------------------
                     Demand      Head  Pressure
  Node                 m3/h         m         m
  ----------------------------------------------
  1                   54.93    203.13     43.13
  2                   54.93    207.59     57.59
  3                  148.31    198.81     48.81
  4                   65.92    206.20     51.20
  5                  109.86    201.82     41.82
  6                  181.27    204.85     39.85
  7                 -615.23    210.00      0.00  Reservoir
   
   
  Link Results at 1:30:00 hrs:
  ------------------------------------
                       Flow     State
  Link                 m3/h          
  ------------------------------------
  1                  101.86      open
  2                   46.93      open
  3                  458.44      open
  4                   62.73      open
  5                   38.66      open
  6                  329.80      open
  7                  148.52      open
  8                  615.23      open
   
   
  Node Results at 1:45:00 hrs:
  ----------------------------------------------
                     Demand      Head  Pressure
  Node                 m3/h         m         m
  ----------------------------------------------
  1                   51.70    203.86     43.86
  2                   51.70    207.85     57.85
  3                  139.59    199.99     49.99
  4                   62.04    206.60     51.60
  5                  103.40    202.69     42.69
  6                  170.61    205.40     40.40
  7                 -579.03    210.00      0.00  Reservoir
   
   
  Link Results at 1:45:00 hrs:
  ------------------------------------
                       Flow     State
  Link                 m3/h          
  ------------------------------------
  1                   95.86      open
  2                   44.17      open
  3                  431.47      open
  4                   59.03      open
  5                   36.39      open
  6                  310.39      open
  7                  139.79      open
  8                  579.03      open
   
   
  Node Results at 2:00:00 hrs:
  ----------------------------------------------
                     Demand      Head  Pressure
  Node                 m3/h         m         m
  ----------------------------------------------
  1                   49.90    204.25     44.25
  2                   49.90    207.99     57.99
  3                  134.72    200.63     50.63
  4                   59.88    206.82     51.82
  5                   99.79    203.16     43.16
  6                  164.66    205.69     40.69
  7                 -558.85    210.00      0.00  Reservoir
   
   
  Link Results at 2:00:00 hrs:
  ------------------------------------
                       Flow     State
  Link                 m3/h          
  ------------------------------------
  1                   92.52      open
  2                   42.63      open
  3                  416.43      open
  4                   56.98      open
  5                   35.12      open
  6                  299.57      open
  7                  134.91      open
  8                  558.85      open
   
   
  Node Results at 2:15:00 hrs:
  ----------------------------------------------
                     Demand      Head  Pressure
  Node                 m3/h         m         m
  ----------------------------------------------
  1                   48.42    204.56     44.56
  2                   48.42    208.10     58.10
  3                  130.74    201.14     51.14
  4                   58.11    206.99     51.99
  5                   96.84    203.53     43.53
  6                  159.79    205.93     40.93
  7                 -542.31    210.00      0.00  Reservoir
   
   
  Link Results at 2:15:00 hrs:
  ------------------------------------
                       Flow     State
  Link                 m3/h          
  ------------------------------------
  1                   89.79      open
  2                   41.36      open
  3                  404.11      open
  4                   55.29      open
  5                   34.08      open
  6                  290.71      open
  7                  130.92      open
  8                  542.31      open
   
   
  Node Results at 2:30:00 hrs:
  ----------------------------------------------
                     Demand      Head  Pressure
  Node                 m3/h         m         m
  ----------------------------------------------
  1                   45.91    205.07     45.07
  2                   45.91    208.27     58.27
  3                  123.96    201.97     51.97
  4                   55.09    207.27     52.27
  5                   91.82    204.13     44.13
  6                  151.51    206.31     41.31
  7                 -514.21    210.00      0.00  Reservoir
   
   
  Link Results at 2:30:00 hrs:
  ------------------------------------
                       Flow     State
  Link                 m3/h          
  ------------------------------------
  1                   85.13      open
  2                   39.22      open
  3                  383.16      open
  4                   52.43      open
  5                   32.31      open
  6                  275.64      open
  7                  124.14      open
  8                  514.21      open
   
   
  Node Results at 2:45:00 hrs:
  ----------------------------------------------
                     Demand      Head  Pressure
  Node                 m3/h         m         m
  ----------------------------------------------
  1                   44.40    205.37     45.37
  2                   44.40    208.38     58.38
  3                  119.87    202.45     52.45
  4                   53.28    207.44     52.44
  5                   88.80    204.49     44.49
  6                  146.51    206.53     41.53
  7                 -497.26    210.00      0.00  Reservoir
   
   
  Link Results at 2:45:00 hrs:
  ------------------------------------
                       Flow     State
  Link                 m3/h          
  ------------------------------------
  1                   82.33      open
  2                   37.93      open
  3                  370.53      open
  4                   50.70      open
  5                   31.25      open
  6                  266.56      open
  7                  120.04      open
  8                  497.26      open
   
   
  Node Results at 3:00:00 hrs:
  ----------------------------------------------
                     Demand      Head  Pressure
  Node                 m3/h         m         m
  ----------------------------------------------
  1                   40.61    206.07     46.07
  2                   40.61    208.63     58.63
  3                  109.64    203.60     53.60
  4                   48.73    207.83     52.83
  5                   81.22    205.33     45.33
  6                  134.01    207.06     42.06
  7                 -454.82    210.00      0.00  Reservoir
   
   
  Link Results at 3:00:00 hrs:
  ------------------------------------
                       Flow     State
  Link                 m3/h          
  ------------------------------------
  1                   75.30      open
  2                   34.69      open
  3                  338.91      open
  4                   46.37      open
  5                   28.58      open
  6                  243.81      open
  7                  109.80      open
  8                  454.82      open
   
   
  Node Results at 3:15:00 hrs:
  ----------------------------------------------
                     Demand      Head  Pressure
  Node                 m3/h         m         m
  ----------------------------------------------
  1                   36.48    206.78     46.78
  2                   36.48    208.87     58.87
  3                   98.49    204.75     54.75
  4                   43.77    208.22     53.22
  5                   72.96    206.17     46.17
  6                  120.38    207.59     42.59
  7                 -408.56    210.00      0.00  Reservoir
   
   
  Link Results at 3:15:00 hrs:
  ------------------------------------
                       Flow     State
  Link                 m3/h          
  ------------------------------------
  1                   67.64      open
  2                   31.16      open
  3                  304.44      open
  4                   41.65      open
  5                   25.67      open
  6                  219.01      open
  7                   98.63      open
  8                  408.56      open
   
   
  Node Results at 3:30:00 hrs:
  ----------------------------------------------
                     Demand      Head  Pressure
  Node                 m3/h         m         m
  ----------------------------------------------
  1                   33.27    207.28     47.28
  2                   33.27    209.05     59.05
  3                   89.82    205.58     55.58
  4                   39.92    208.50     53.50
  5                   66.54    206.77     46.77
  6                  109.78    207.97     42.97
  7                 -372.60    210.00      0.00  Reservoir
   
   
  Link Results at 3:30:00 hrs:
  ------------------------------------
                       Flow     State
  Link                 m3/h          
  ------------------------------------
  1                   61.69      open
  2                   28.42      open
  3                  277.64      open
  4                   37.99      open
  5                   23.41      open
  6                  199.73      open
  7                   89.95      open
  8                  372.60      open
   
   
  Node Results at 3:45:00 hrs:
  ----------------------------------------------
                     Demand      Head  Pressure
  Node                 m3/h         m         m
  ----------------------------------------------
  1                   30.78    207.65     47.65
  2                   30.78    209.18     59.18
  3                   83.10    206.17     56.17
  4                   36.93    208.70     53.70
  5                   61.55    207.20     47.20
  6                  101.56    208.24     43.24
  7                 -344.70    210.00      0.00  Reservoir
   
   
  Link Results at 3:45:00 hrs:
  ------------------------------------
                       Flow     State
  Link                 m3/h          
  ------------------------------------
  1                   57.07      open
  2                   26.29      open
  3                  256.85      open
  4                   35.14      open
  5                   21.66      open
  6                  184.78      open
  7                   83.21      open
  8                  344.70      open
   
   
  Node Results at 4:00:00 hrs:
  ----------------------------------------------
                     Demand      Head  Pressure
  Node                 m3/h         m         m
  ----------------------------------------------
  1                   30.90    207.63     47.63
  2                   30.90    209.17     59.17
  3                   83.42    206.14     56.14
  4                   37.08    208.69     53.69
  5                   61.79    207.18     47.18
  6                  101.96    208.23     43.23
  7                 -346.04    210.00      0.00  Reservoir
   
   
  Link Results at 4:00:00 hrs:
  ------------------------------------
                       Flow     State
  Link                 m3/h          
  ------------------------------------
  1                   57.29      open
  2                   26.39      open
  3                  257.85      open
  4                   35.28      open
  5                   21.75      open
  6                  185.50      open
  7                   83.54      open
  8                  346.04      open
   
   
  Node Results at 4:15:00 hrs:
  ----------------------------------------------
                     Demand      Head  Pressure
  Node                 m3/h         m         m
  ----------------------------------------------
  1                   31.60    207.53     47.53
  2                   31.60    209.14     59.14
  3                   85.31    205.98     55.98
  4                   37.91    208.64     53.64
  5                   63.19    207.06     47.06
  6                  104.27    208.15     43.15
  7                 -353.87    210.00      0.00  Reservoir
   
   
  Link Results at 4:15:00 hrs:
  ------------------------------------
                       Flow     State
  Link                 m3/h          
  ------------------------------------
  1                   58.59      open
  2                   26.99      open
  3                  263.69      open
  4                   36.08      open
  5                   22.24      open
  6                  189.69      open
  7                   85.43      open
  8                  353.87      open
   
   
  Node Results at 4:30:00 hrs:
  ----------------------------------------------
                     Demand      Head  Pressure
  Node                 m3/h         m         m
  ----------------------------------------------
  1                   35.04    207.01     47.01
  2                   35.04    208.95     58.95
  3                   94.60    205.13     55.13
  4                   42.05    208.35     53.35
  5                   70.08    206.44     46.44
  6                  115.63    207.76     42.76
  7                 -392.43    210.00      0.00  Reservoir
   
   
  Link Results at 4:30:00 hrs:
  ------------------------------------
                       Flow     State
  Link                 m3/h          
  ------------------------------------
  1                   64.97      open
  2                   29.93      open
  3                  292.42      open
  4                   40.01      open
  5                   24.66      open
  6                  210.36      open
  7                   94.74      open
  8                  392.43      open
   
   
  Node Results at 4:45:00 hrs:
  ----------------------------------------------
                     Demand      Head  Pressure
  Node                 m3/h         m         m
  ----------------------------------------------
  1                   37.36    206.63     46.63
  2                   37.36    208.82     58.82
  3                  100.86    204.52     54.52
  4                   44.83    208.14     53.14
  5                   74.71    206.00     46.00
  6                  123.27    207.48     42.48
  7                 -418.38    210.00      0.00  Reservoir
   
   
  Link Results at 4:45:00 hrs:
  ------------------------------------
                       Flow     State
  Link                 m3/h          
  ------------------------------------
  1                   69.27      open
  2                   31.91      open
  3                  311.76      open
  4                   42.66      open
  5                   26.29      open
  6                  224.28      open
  7                  101.00      open
  8                  418.38      open
   
   
  Node Results at 5:00:00 hrs:
  ----------------------------------------------
                     Demand      Head  Pressure
  Node                 m3/h         m         m
  ----------------------------------------------
  1                   37.96    206.53     46.53
  2                   37.96    208.79     58.79
  3                  102.49    204.35     54.35
  4                   45.55    208.08     53.08
  5                   75.92    205.88     45.88
  6                  125.26    207.40     42.40
  7                 -425.13    210.00      0.00  Reservoir
   
   
  Link Results at 5:00:00 hrs:
  ------------------------------------
                       Flow     State
  Link                 m3/h          
  ------------------------------------
  1                   70.38      open
  2                   32.43      open
  3                  316.78      open
  4                   43.34      open
  5                   26.72      open
  6                  227.89      open
  7                  102.63      open
  8                  425.13      open
   
   
  Node Results at 5:15:00 hrs:
  ----------------------------------------------
                     Demand      Head  Pressure
  Node                 m3/h         m         m
  ----------------------------------------------
  1                   40.67    206.06     46.06
  2                   40.67    208.62     58.62
  3                  109.81    203.58     53.58
  4                   48.80    207.82     52.82
  5                   81.34    205.31     45.31
  6                  134.21    207.05     42.05
  7                 -455.50    210.00      0.00  Reservoir
   
   
  Link Results at 5:15:00 hrs:
  ------------------------------------
                       Flow     State
  Link                 m3/h          
  ------------------------------------
  1                   75.41      open
  2                   34.74      open
  3                  339.42      open
  4                   46.44      open
  5                   28.62      open
  6                  244.17      open
  7                  109.96      open
  8                  455.50      open
   
   
  Node Results at 5:30:00 hrs:
  ----------------------------------------------
                     Demand      Head  Pressure
  Node                 m3/h         m         m
  ----------------------------------------------
  1                   40.94    206.01     46.01
  2                   40.94    208.60     58.60
  3                  110.54    203.51     53.51
  4                   49.13    207.79     52.79
  5                   81.88    205.26     45.26
  6                  135.10    207.01     42.01
  7                 -458.53    210.00      0.00  Reservoir
   
   
  Link Results at 5:30:00 hrs:
  ------------------------------------
                       Flow     State
  Link                 m3/h          
  ------------------------------------
  1                   75.91      open
  2                   34.97      open
  3                  341.67      open
  4                   46.75      open
  5                   28.81      open
  6                  245.80      open
  7                  110.69      open
  8                  458.53      open
   
   
  Node Results at 5:45:00 hrs:
  ----------------------------------------------
                     Demand      Head  Pressure
  Node                 m3/h         m         m
  ----------------------------------------------
  1                   42.09    205.80     45.80
  2                   42.09    208.53     58.53
  3                  113.64    203.16     53.16
  4                   50.51    207.68     52.68
  5                   84.18    205.01     45.01
  6                  138.89    206.86     41.86
  7                 -471.38    210.00      0.00  Reservoir
   
   
  Link Results at 5:45:00 hrs:
  ------------------------------------
                       Flow     State
  Link                 m3/h          
  ------------------------------------
  1                   78.04      open
  2                   35.95      open
  3                  351.25      open
  4                   48.06      open
  5                   29.62      open
  6                  252.69      open
  7                  113.80      open
  8                  471.38      open
   
   
  Node Results at 6:00:00 hrs:
  ----------------------------------------------
                     Demand      Head  Pressure
  Node                 m3/h         m         m
  ----------------------------------------------
  1                   52.27    203.73     43.73
  2                   52.27    207.81     57.81
  3                  141.13    199.79     49.79
  4                   62.72    206.53     51.53
  5                  104.54    202.54     42.54
  6                  172.49    205.31     40.31
  7                 -585.42    210.00      0.00  Reservoir
   
   
  Link Results at 6:00:00 hrs:
  ------------------------------------
                       Flow     State
  Link                 m3/h          
  ------------------------------------
  1                   96.92      open
  2                   44.65      open
  3                  436.23      open
  4                   59.69      open
  5                   36.79      open
  6                  313.82      open
  7                  141.33      open
  8                  585.42      open
   
   
  Node Results at 6:15:00 hrs:
  ----------------------------------------------
                     Demand      Head  Pressure
  Node                 m3/h         m         m
  ----------------------------------------------
  1                   61.78    201.45     41.45
  2                   61.78    207.01     57.01
  3                  166.81    196.08     46.08
  4                   74.14    205.27     50.27
  5                  123.57    199.83     39.83
  6                  203.88    203.60     38.60
  7                 -691.97    210.00      0.00  Reservoir
   
   
  Link Results at 6:15:00 hrs:
  ------------------------------------
                       Flow     State
  Link                 m3/h          
  ------------------------------------
  1                  114.56      open
  2                   52.78      open
  3                  515.62      open
  4                   70.55      open
  5                   43.48      open
  6                  370.93      open
  7                  167.05      open
  8                  691.97      open
   
   
  Node Results at 6:30:00 hrs:
  ----------------------------------------------
                     Demand      Head  Pressure
  Node                 m3/h         m         m
  ----------------------------------------------
  1                   81.78    195.63     35.63
  2                   81.78    204.97     54.97
  3                  220.80    186.61     36.61
  4                   98.13    202.06     47.06
  5                  163.56    192.91     32.91
  6                  269.87    199.25     34.25
  7                 -915.91    210.00      0.00  Reservoir
   
   
  Link Results at 6:30:00 hrs:
  ------------------------------------
                       Flow     State
  Link                 m3/h          
  ------------------------------------
  1                  151.64      open
  2                   69.86      open
  3                  682.50      open
  4                   93.38      open
  5                   57.56      open
  6                  490.98      open
  7                  221.11      open
  8                  915.91      open
   
   
  Node Results at 6:45:00 hrs:
  ----------------------------------------------
                     Demand      Head  Pressure
  Node                 m3/h         m         m
  ----------------------------------------------
  1                  101.04    188.75     28.75
  2                  101.04    202.56     52.56
  3                  272.81    175.39     25.39
  4                  121.25    198.25     43.25
  5                  202.08    184.72     24.72
  6                  333.44    194.09     29.09
  7                -1131.66    210.00      0.00  Reservoir
   
   
  Link Results at 6:45:00 hrs:
  ------------------------------------
                       Flow     State
  Link                 m3/h          
  ------------------------------------
  1                  187.36      open
  2                   86.32      open
  3                  843.26      open
  4                  115.38      open
  5                   71.12      open
  6                  606.64      open
  7                  273.20      open
  8                 1131.66      open
   
   
  Node Results at 7:00:00 hrs:
  ----------------------------------------------
                     Demand      Head  Pressure
  Node                 m3/h         m         m
  ----------------------------------------------
  1                  123.68    179.09     19.09
  2                  123.68    199.18     49.18
  3                  333.93    159.67      9.67
  4                  148.41    192.91     37.91
  5                  247.36    173.24     13.24
  6                  408.14    186.86     21.86
  7                -1385.20    210.00      0.00  Reservoir
   
   
  Link Results at 7:00:00 hrs:
  ------------------------------------
                       Flow     State
  Link                 m3/h          
  ------------------------------------
  1                  229.33      open
  2                  105.66      open
  3                 1032.19      open
  4                  141.23      open
  5                   87.05      open
  6                  742.55      open
  7                  334.41      open
  8                 1385.20      open
   
   
  Node Results at 7:15:00 hrs:
  ----------------------------------------------
                     Demand      Head  Pressure
  Node                 m3/h         m         m
  ----------------------------------------------
  1                  139.14    172.59     12.59
  2                  139.14    196.79     46.79
  3                  360.70    150.09      0.09
  4                  166.96    189.12     34.12
  5                  278.27    165.21      5.21
  6                  459.15    181.69     16.69
  7                -1543.36    210.00      0.00  Reservoir
   
   
  Link Results at 7:15:00 hrs:
  ------------------------------------
                       Flow     State
  Link                 m3/h          
  ------------------------------------
  1                  253.54      open
  2                  114.40      open
  3                 1150.69      open
  4                  154.01      open
  5                   92.29      open
  6                  829.72      open
  7                  370.56      open
  8                 1543.36      open
   
   
  Node Results at 7:30:00 hrs:
  ----------------------------------------------
                     Demand      Head  Pressure
  Node                 m3/h         m         m
  ----------------------------------------------
  1                  147.15    171.07     11.07
  2                  147.15    195.94     45.94
  3                  344.99    150.08      0.08
  4                  176.58    187.77     32.77
  5                  294.30    162.67      2.67
  6                  485.59    179.77     14.77
  7                -1595.75    210.00      0.00  Reservoir
   
   
  Link Results at 7:30:00 hrs:
  ------------------------------------
                       Flow     State
  Link                 m3/h          
  ------------------------------------
  1                  257.35      open
  2                  110.20      open
  3                 1191.25      open
  4                  151.14      open
  5                   83.64      open
  6                  863.53      open
  7                  377.94      open
  8                 1595.75      open
   
   
  Node Results at 7:45:00 hrs:
  ----------------------------------------------
                     Demand      Head  Pressure
  Node                 m3/h         m         m
  ----------------------------------------------
  1                  156.05    169.41      9.41
  2                  156.05    195.02     45.02
  3                  327.38    150.06      0.06
  4                  187.26    186.29     31.29
  5                  309.76    160.10      0.10
  6                  514.95    177.68     12.68
  7                -1651.44    210.00      0.00  Reservoir
   
   
  Link Results at 7:45:00 hrs:
  ------------------------------------
                       Flow     State
  Link                 m3/h          
  ------------------------------------
  1                  261.48      open
  2                  105.44      open
  3                 1233.91      open
  4                  147.96      open
  5                   73.98      open
  6                  898.70      open
  7                  383.75      open
  8                 1651.44      open
   
   
  Node Results at 8:00:00 hrs:
  ----------------------------------------------
                     Demand      Head  Pressure
  Node                 m3/h         m         m
  ----------------------------------------------
  1                  157.16    169.22      9.22
  2                  157.16    194.94     44.94
  3                  326.58    150.06      0.06
  4                  188.59    186.18     31.18
  5                  308.01    160.10      0.10
  6                  518.63    177.53     12.53
  7                -1656.12    210.00      0.00  Reservoir
   
   
  Link Results at 8:00:00 hrs:
  ------------------------------------
                       Flow     State
  Link                 m3/h          
  ------------------------------------
  1                  262.06      open
  2                  104.90      open
  3                 1236.90      open
  4                  147.70      open
  5                   73.98      open
  6                  900.61      open
  7                  381.98      open
  8                 1656.12      open
   
   
  Node Results at 8:15:00 hrs:
  ----------------------------------------------
                     Demand      Head  Pressure
  Node                 m3/h         m         m
  ----------------------------------------------
  1                  155.99    169.41      9.41
  2                  155.99    195.03     45.03
  3                  327.42    150.06      0.06
  4                  187.19    186.30     31.30
  5                  309.85    160.10      0.10
  6                  514.77    177.69     12.69
  7                -1651.21    210.00      0.00  Reservoir
   
   
  Link Results at 8:15:00 hrs:
  ------------------------------------
                       Flow     State
  Link                 m3/h          
  ------------------------------------
  1                  261.45      open
  2                  105.46      open
  3                 1233.76      open
  4                  147.97      open
  5                   73.98      open
  6                  898.60      open
  7                  383.84      open
  8                 1651.21      open
   
   
  Node Results at 8:30:00 hrs:
  ----------------------------------------------
                     Demand      Head  Pressure
  Node                 m3/h         m         m
  ----------------------------------------------
  1                  161.64    168.49      8.49
  2                  161.64    194.63     44.63
  3                  323.33    150.05      0.05
  4                  193.97    185.70     30.70
  5                  300.85    160.09      0.09
  6                  533.41    176.92     11.92
  7                -1674.85    210.00      0.00  Reservoir
   
   
  Link Results at 8:30:00 hrs:
  ------------------------------------
                       Flow     State
  Link                 m3/h          
  ------------------------------------
  1                  264.36      open
  2                  102.72      open
  3                 1248.86      open
  4                  146.66      open
  5                   73.96      open
  6                  908.23      open
  7                  374.81      open
  8                 1674.85      open
   
   
  Node Results at 8:45:00 hrs:
  ----------------------------------------------
                     Demand      Head  Pressure
  Node                 m3/h         m         m
  ----------------------------------------------
  1                  162.24    168.39      8.39
  2                  162.24    194.58     44.58
  3                  322.90    150.05      0.05
  4                  194.69    185.64     30.64
  5                  299.89    160.09      0.09
  6                  535.39    176.84     11.84
  7                -1677.35    210.00      0.00  Reservoir
   
   
  Link Results at 8:45:00 hrs:
  ------------------------------------
                       Flow     State
  Link                 m3/h          
  ------------------------------------
  1                  264.66      open
  2                  102.42      open
  3                 1250.45      open
  4                  146.52      open
  5                   73.96      open
  6                  909.24      open
  7                  373.85      open
  8                 1677.35      open
   
   
  Node Results at 9:00:00 hrs:
  ----------------------------------------------
                     Demand      Head  Pressure
  Node                 m3/h         m         m
  ----------------------------------------------
  1                  163.94    168.11      8.11
  2                  163.94    194.46     44.46
  3                  321.66    150.05      0.05
  4                  196.72    185.46     30.46
  5                  297.15    160.08      0.08
  6                  540.99    176.60     11.60
  7                -1684.39    210.00      0.00  Reservoir
   
   
  Link Results at 9:00:00 hrs:
  ------------------------------------
                       Flow     State
  Link                 m3/h          
  ------------------------------------
  1                  265.52      open
  2                  101.58      open
  3                 1254.93      open
  4                  146.12      open
  5                   73.95      open
  6                  912.09      open
  7                  371.10      open
  8                 1684.39      open
   
   
  Node Results at 9:15:00 hrs:
  ----------------------------------------------
                     Demand      Head  Pressure
  Node                 m3/h         m         m
  ----------------------------------------------
  1                  161.91    168.44      8.44
  2                  161.91    194.61     44.61
  3                  323.14    150.05      0.05
  4                  194.29    185.67     30.67
  5                  300.43    160.09      0.09
  6                  534.29    176.88     11.88
  7                -1675.96    210.00      0.00  Reservoir
   
   
  Link Results at 9:15:00 hrs:
  ------------------------------------
                       Flow     State
  Link                 m3/h          
  ------------------------------------
  1                  264.49      open
  2                  102.59      open
  3                 1249.56      open
  4                  146.60      open
  5                   73.96      open
  6                  908.68      open
  7                  374.39      open
  8                 1675.96      open
   
   
  Node Results at 9:30:00 hrs:
  ----------------------------------------------
                     Demand      Head  Pressure
  Node                 m3/h         m         m
  ----------------------------------------------
  1                  154.76    169.63      9.63
  2                  154.76    195.14     45.14
  3                  329.21    150.06      0.06
  4                  185.71    186.47     31.47
  5                  309.51    160.30      0.30
  6                  510.69    177.92     12.92
  7                -1644.63    210.00      0.00  Reservoir
   
   
  Link Results at 9:30:00 hrs:
  ------------------------------------
                       Flow     State
  Link                 m3/h          
  ------------------------------------
  1                  260.85      open
  2                  106.10      open
  3                 1229.02      open
  4                  148.35      open
  5                   74.77      open
  6                  894.97      open
  7                  384.28      open
  8                 1644.63      open
   
   
  Node Results at 9:45:00 hrs:
  ----------------------------------------------
                     Demand      Head  Pressure
  Node                 m3/h         m         m
  ----------------------------------------------
  1                  152.41    170.08     10.08
  2                  152.41    195.39     45.39
  3                  334.16    150.07      0.07
  4                  182.90    186.87     31.87
  5                  304.83    161.02      1.02
  6                  502.97    178.49     13.49
  7                -1629.68    210.00      0.00  Reservoir
   
   
  Link Results at 9:45:00 hrs:
  ------------------------------------
                       Flow     State
  Link                 m3/h          
  ------------------------------------
  1                  259.79      open
  2                  107.37      open
  3                 1217.48      open
  4                  149.21      open
  5                   77.58      open
  6                  885.37      open
  7                  382.40      open
  8                 1629.68      open
   
   
  Node Results at 10:00:00 hrs:
  ----------------------------------------------
                     Demand      Head  Pressure
  Node                 m3/h         m         m
  ----------------------------------------------
  1                  146.85    171.13     11.13
  2                  146.85    195.98     45.98
  3                  345.58    150.08      0.08
  4                  176.23    187.82     32.82
  5                  293.71    162.77      2.77
  6                  484.62    179.84     14.84
  7                -1593.84    210.00      0.00  Reservoir
   
   
  Link Results at 10:00:00 hrs:
  ------------------------------------
                       Flow     State
  Link                 m3/h          
  ------------------------------------
  1                  257.21      open
  2                  110.36      open
  3                 1189.78      open
  4                  151.25      open
  5                   83.97      open
  6                  862.30      open
  7                  377.68      open
  8                 1593.84      open
   
   
  Node Results at 10:15:00 hrs:
  ----------------------------------------------
                     Demand      Head  Pressure
  Node                 m3/h         m         m
  ----------------------------------------------
  1                  141.65    172.12     12.12
  2                  141.65    196.52     46.52
  3                  355.87    150.09      0.09
  4                  169.97    188.70     33.70
  5                  283.29    164.41      4.41
  6                  467.43    181.09     16.09
  7                -1559.86    210.00      0.00  Reservoir
   
   
  Link Results at 10:15:00 hrs:
  ------------------------------------
                       Flow     State
  Link                 m3/h          
  ------------------------------------
  1                  254.74      open
  2                  113.10      open
  3                 1163.47      open
  4                  153.12      open
  5                   89.65      open
  6                  840.37      open
  7                  372.94      open
  8                 1559.86      open
   
   
  Node Results at 10:30:00 hrs:
  ----------------------------------------------
                     Demand      Head  Pressure
  Node                 m3/h         m         m
  ----------------------------------------------
  1                  136.07    173.18     13.18
  2                  136.07    197.11     47.11
  3                  366.49    150.10      0.10
  4                  163.28    189.63     34.63
  5                  272.13    166.18      6.18
  6                  449.02    182.42     17.42
  7                -1523.06    210.00      0.00  Reservoir
   
   
  Link Results at 10:30:00 hrs:
  ------------------------------------
                       Flow     State
  Link                 m3/h          
  ------------------------------------
  1                  252.04      open
  2                  115.97      open
  3                 1134.95      open
  4                  155.08      open
  5                   95.43      open
  6                  816.59      open
  7                  367.57      open
  8                 1523.06      open
   
   
  Node Results at 10:45:00 hrs:
  ----------------------------------------------
                     Demand      Head  Pressure
  Node                 m3/h         m         m
  ----------------------------------------------
  1                  140.81    172.27     12.27
  2                  140.81    196.61     46.61
  3                  357.48    150.09      0.09
  4                  168.98    188.84     33.84
  5                  281.63    164.68      4.68
  6                  464.68    181.29     16.29
  7                -1554.39    210.00      0.00  Reservoir
   
   
  Link Results at 10:45:00 hrs:
  ------------------------------------
                       Flow     State
  Link                 m3/h          
  ------------------------------------
  1                  254.35      open
  2                  113.53      open
  3                 1159.24      open
  4                  153.42      open
  5                   90.53      open
  6                  836.84      open
  7                  372.16      open
  8                 1554.39      open
   
   
  Node Results at 11:00:00 hrs:
  ----------------------------------------------
                     Demand      Head  Pressure
  Node                 m3/h         m         m
  ----------------------------------------------
  1                  128.67    176.74     16.74
  2                  128.68    198.36     48.36
  3                  347.42    155.84      5.84
  4                  154.41    191.61     36.61
  5                  257.35    170.44     10.44
  6                  424.63    185.10     20.10
  7                -1441.16    210.00      0.00  Reservoir
   
   
  Link Results at 11:00:00 hrs:
  ------------------------------------
                       Flow     State
  Link                 m3/h          
  ------------------------------------
  1                  238.60      open
  2                  109.92      open
  3                 1073.89      open
  4                  146.93      open
  5                   90.57      open
  6                  772.54      open
  7                  347.92      open
  8                 1441.16      open
   
   
  Node Results at 11:15:00 hrs:
  ----------------------------------------------
                     Demand      Head  Pressure
  Node                 m3/h         m         m
  ----------------------------------------------
  1                  123.44    179.20     19.20
  2                  123.45    199.22     49.22
  3                  333.30    159.85      9.85
  4                  148.13    192.97     37.97
  5                  246.89    173.37     13.37
  6                  407.37    186.94     21.94
  7                -1382.58    210.00      0.00  Reservoir
   
   
  Link Results at 11:15:00 hrs:
  ------------------------------------
                       Flow     State
  Link                 m3/h          
  ------------------------------------
  1                  228.90      open
  2                  105.46      open
  3                 1030.24      open
  4                  140.96      open
  5                   86.88      open
  6                  741.14      open
  7                  333.77      open
  8                 1382.58      open
   
   
  Node Results at 11:30:00 hrs:
  ----------------------------------------------
                     Demand      Head  Pressure
  Node                 m3/h         m         m
  ----------------------------------------------
  1                  116.30    182.42     22.42
  2                  116.30    200.35     50.35
  3                  314.01    165.09     15.09
  4                  139.56    194.75     39.75
  5                  232.60    177.20     17.20
  6                  383.80    189.35     24.35
  7                -1302.58    210.00      0.00  Reservoir
   
   
  Link Results at 11:30:00 hrs:
  ------------------------------------
                       Flow     State
  Link                 m3/h          
  ------------------------------------
  1                  215.66      open
  2                   99.35      open
  3                  970.62      open
  4                  132.80      open
  5                   81.86      open
  6                  698.25      open
  7                  314.46      open
  8                 1302.58      open
   
   
  Node Results at 11:45:00 hrs:
  ----------------------------------------------
                     Demand      Head  Pressure
  Node                 m3/h         m         m
  ----------------------------------------------
  1                  116.18    182.47     22.47
  2                  116.18    200.37     50.37
  3                  313.68    165.18     15.18
  4                  139.41    194.78     39.78
  5                  232.36    177.26     17.26
  6                  383.39    189.39     24.39
  7                -1301.20    210.00      0.00  Reservoir
   
   
  Link Results at 11:45:00 hrs:
  ------------------------------------
                       Flow     State
  Link                 m3/h          
  ------------------------------------
  1                  215.43      open
  2                   99.25      open
  3                  969.60      open
  4                  132.66      open
  5                   81.77      open
  6                  697.52      open
  7                  314.13      open
  8                 1301.20      open
   
   
  Node Results at 12:00:00 hrs:
  ----------------------------------------------
                     Demand      Head  Pressure
  Node                 m3/h         m         m
  ----------------------------------------------
  1                  106.45    186.59     26.59
  2                  106.45    201.81     51.81
  3                  287.41    171.88     21.88
  4                  127.74    197.06     42.06
  5                  212.90    182.16     22.16
  6                  351.28    192.48     27.48
  7                -1192.23    210.00      0.00  Reservoir
   
   
  Link Results at 12:00:00 hrs:
  ------------------------------------
                       Flow     State
  Link                 m3/h          
  ------------------------------------
  1                  197.39      open
  2                   90.94      open
  3                  888.40      open
  4                  121.55      open
  5                   74.92      open
  6                  639.10      open
  7                  287.82      open
  8                 1192.23      open
   
   
  Node Results at 12:15:00 hrs:
  ----------------------------------------------
                     Demand      Head  Pressure
  Node                 m3/h         m         m
  ----------------------------------------------
  1                  105.77    186.86     26.86
  2                  105.78    201.90     51.90
  3                  285.59    172.33     22.33
  4                  126.93    197.21     42.21
  5                  211.55    182.48     22.48
  6                  349.06    192.68     27.68
  7                -1184.68    210.00      0.00  Reservoir
   
   
  Link Results at 12:15:00 hrs:
  ------------------------------------
                       Flow     State
  Link                 m3/h          
  ------------------------------------
  1                  196.14      open
  2                   90.36      open
  3                  882.77      open
  4                  120.78      open
  5                   74.45      open
  6                  635.05      open
  7                  286.00      open
  8                 1184.68      open
   
   
  Node Results at 12:30:00 hrs:
  ----------------------------------------------
                     Demand      Head  Pressure
  Node                 m3/h         m         m
  ----------------------------------------------
  1                  101.37    188.62     28.62
  2                  101.37    202.52     52.52
  3                  273.69    175.18     25.18
  4                  121.64    198.18     43.18
  5                  202.73    184.57     24.57
  6                  334.51    193.99     28.99
  7                -1135.29    210.00      0.00  Reservoir
   
   
  Link Results at 12:30:00 hrs:
  ------------------------------------
                       Flow     State
  Link                 m3/h          
  ------------------------------------
  1                  187.96      open
  2                   86.59      open
  3                  845.97      open
  4                  115.75      open
  5                   71.34      open
  6                  608.58      open
  7                  274.07      open
  8                 1135.29      open
   
   
  Node Results at 12:45:00 hrs:
  ----------------------------------------------
                     Demand      Head  Pressure
  Node                 m3/h         m         m
  ----------------------------------------------
  1                  101.88    188.42     28.42
  2                  101.88    202.45     52.45
  3                  275.07    174.86     24.86
  4                  122.25    198.07     43.07
  5                  203.75    184.33     24.33
  6                  336.19    193.84     28.84
  7                -1141.01    210.00      0.00  Reservoir
   
   
  Link Results at 12:45:00 hrs:
  ------------------------------------
                       Flow     State
  Link                 m3/h          
  ------------------------------------
  1                  188.91      open
  2                   87.03      open
  3                  850.23      open
  4                  116.33      open
  5                   71.70      open
  6                  611.65      open
  7                  275.46      open
  8                 1141.01      open
   
   
  Node Results at 13:00:00 hrs:
  ----------------------------------------------
                     Demand      Head  Pressure
  Node                 m3/h         m         m
  ----------------------------------------------
  1                   98.98    189.54     29.54
  2                   98.98    202.84     52.84
  3                  267.24    176.69     26.69
  4                  118.77    198.69     43.69
  5                  197.96    185.67     25.67
  6                  326.63    194.69     29.69
  7                -1108.56    210.00      0.00  Reservoir
   
   
  Link Results at 13:00:00 hrs:
  ------------------------------------
                       Flow     State
  Link                 m3/h          
  ------------------------------------
  1                  183.53      open
  2                   84.56      open
  3                  826.05      open
  4                  113.02      open
  5                   69.66      open
  6                  594.25      open
  7                  267.62      open
  8                 1108.56      open
   
   
  Node Results at 13:15:00 hrs:
  ----------------------------------------------
                     Demand      Head  Pressure
  Node                 m3/h         m         m
  ----------------------------------------------
  1                   97.57    190.08     30.08
  2                   97.57    203.03     53.03
  3                  263.44    177.56     27.56
  4                  117.09    198.99     43.99
  5                  195.14    186.30     26.30
  6                  321.99    195.09     30.09
  7                -1092.80    210.00      0.00  Reservoir
   
   
  Link Results at 13:15:00 hrs:
  ------------------------------------
                       Flow     State
  Link                 m3/h          
  ------------------------------------
  1                  180.93      open
  2                   83.35      open
  3                  814.31      open
  4                  111.42      open
  5                   68.67      open
  6                  585.80      open
  7                  263.82      open
  8                 1092.80      open
   
   
  Node Results at 13:30:00 hrs:
  ----------------------------------------------
                     Demand      Head  Pressure
  Node                 m3/h         m         m
  ----------------------------------------------
  1                  100.30    189.03     29.03
  2                  100.30    202.66     52.66
  3                  270.80    175.86     25.86
  4                  120.36    198.41     43.41
  5                  200.59    185.06     25.06
  6                  330.98    194.31     29.31
  7                -1123.33    210.00      0.00  Reservoir
   
   
  Link Results at 13:30:00 hrs:
  ------------------------------------
                       Flow     State
  Link                 m3/h          
  ------------------------------------
  1                  185.98      open
  2                   85.68      open
  3                  837.05      open
  4                  114.53      open
  5                   70.59      open
  6                  602.17      open
  7                  271.19      open
  8                 1123.33      open
   
   
  Node Results at 13:45:00 hrs:
  ----------------------------------------------
                     Demand      Head  Pressure
  Node                 m3/h         m         m
  ----------------------------------------------
  1                  101.46    188.58     28.58
  2                  101.46    202.51     52.51
  3                  273.95    175.12     25.12
  4                  121.75    198.16     43.16
  5                  202.92    184.52     24.52
  6                  334.82    193.97     28.97
  7                -1136.37    210.00      0.00  Reservoir
   
   
  Link Results at 13:45:00 hrs:
  ------------------------------------
                       Flow     State
  Link                 m3/h          
  ------------------------------------
  1                  188.14      open
  2                   86.68      open
  3                  846.77      open
  4                  115.86      open
  5                   71.41      open
  6                  609.16      open
  7                  274.33      open
  8                 1136.37      open
   
   
  Node Results at 14:00:00 hrs:
  ----------------------------------------------
                     Demand      Head  Pressure
  Node                 m3/h         m         m
  ----------------------------------------------
  1                  100.13    189.10     29.10
  2                  100.13    202.69     52.69
  3                  270.36    175.96     25.96
  4                  120.16    198.44     43.44
  5                  200.27    185.14     25.14
  6                  330.44    194.35     29.35
  7                -1121.49    210.00      0.00  Reservoir
   
   
  Link Results at 14:00:00 hrs:
  ------------------------------------
                       Flow     State
  Link                 m3/h          
  ------------------------------------
  1                  185.67      open
  2                   85.54      open
  3                  835.68      open
  4                  114.34      open
  5                   70.48      open
  6                  601.18      open
  7                  270.74      open
  8                 1121.49      open
   
   
  Node Results at 14:15:00 hrs:
  ----------------------------------------------
                     Demand      Head  Pressure
  Node                 m3/h         m         m
  ----------------------------------------------
  1                   98.70    189.65     29.65
  2                   98.70    202.88     52.88
  3                  266.50    176.86     26.86
  4                  118.44    198.75     43.75
  5                  197.41    185.79     25.79
  6                  325.72    194.76     29.76
  7                -1105.48    210.00      0.00  Reservoir
   
   
  Link Results at 14:15:00 hrs:
  ------------------------------------
                       Flow     State
  Link                 m3/h          
  ------------------------------------
  1                  183.02      open
  2                   84.32      open
  3                  823.75      open
  4                  112.71      open
  5                   69.47      open
  6                  592.60      open
  7                  266.88      open
  8                 1105.48      open
   
   
  Node Results at 14:30:00 hrs:
  ----------------------------------------------
                     Demand      Head  Pressure
  Node                 m3/h         m         m
  ----------------------------------------------
  1                   94.16    191.35     31.35
  2                   94.16    203.47     53.47
  3                  254.23    179.63     29.63
  4                  112.99    199.69     44.69
  5                  188.32    187.81     27.81
  6                  310.73    196.04     31.04
  7                -1054.60    210.00      0.00  Reservoir
   
   
  Link Results at 14:30:00 hrs:
  ------------------------------------
                       Flow     State
  Link                 m3/h          
  ------------------------------------
  1                  174.60      open
  2                   80.44      open
  3                  785.84      open
  4                  107.52      open
  5                   66.27      open
  6                  565.32      open
  7                  254.59      open
  8                 1054.60      open
   
   
  Node Results at 14:45:00 hrs:
  ----------------------------------------------
                     Demand      Head  Pressure
  Node                 m3/h         m         m
  ----------------------------------------------
  1                   91.78    192.21     32.21
  2                   91.78    203.78     53.78
  3                  247.79    181.04     31.04
  4                  110.13    200.17     45.17
  5                  183.55    188.84     28.84
  6                  302.86    196.69     31.69
  7                -1027.88    210.00      0.00  Reservoir
   
   
  Link Results at 14:45:00 hrs:
  ------------------------------------
                       Flow     State
  Link                 m3/h          
  ------------------------------------
  1                  170.18      open
  2                   78.40      open
  3                  765.93      open
  4                  104.80      open
  5                   64.59      open
  6                  551.00      open
  7                  248.14      open
  8                 1027.88      open
   
   
  Node Results at 15:00:00 hrs:
  ----------------------------------------------
                     Demand      Head  Pressure
  Node                 m3/h         m         m
  ----------------------------------------------
  1                   88.79    193.27     33.27
  2                   88.79    204.15     54.15
  3                  239.73    182.76     32.76
  4                  106.55    200.75     45.75
  5                  177.58    190.10     30.10
  6                  293.01    197.48     32.48
  7                 -994.44    210.00      0.00  Reservoir
   
   
  Link Results at 15:00:00 hrs:
  ------------------------------------
                       Flow     State
  Link                 m3/h          
  ------------------------------------
  1                  164.64      open
  2                   75.85      open
  3                  741.01      open
  4                  101.39      open
  5                   62.49      open
  6                  533.08      open
  7                  240.07      open
  8                  994.44      open
   
   
  Node Results at 15:15:00 hrs:
  ----------------------------------------------
                     Demand      Head  Pressure
  Node                 m3/h         m         m
  ----------------------------------------------
  1                   87.93    193.57     33.57
  2                   87.93    204.25     54.25
  3                  237.41    183.24     33.24
  4                  105.52    200.92     45.92
  5                  175.86    190.46     30.46
  6                  290.17    197.70     32.70
  7                 -984.82    210.00      0.00  Reservoir
   
   
  Link Results at 15:15:00 hrs:
  ------------------------------------
                       Flow     State
  Link                 m3/h          
  ------------------------------------
  1                  163.05      open
  2                   75.12      open
  3                  733.84      open
  4                  100.41      open
  5                   61.89      open
  6                  527.92      open
  7                  237.75      open
  8                  984.82      open
   
   
  Node Results at 15:30:00 hrs:
  ----------------------------------------------
                     Demand      Head  Pressure
  Node                 m3/h         m         m
  ----------------------------------------------
  1                   86.73    193.98     33.98
  2                   86.73    204.39     54.39
  3                  234.17    183.92     33.92
  4                  104.08    201.14     46.14
  5                  173.46    190.95     30.95
  6                  286.21    198.01     33.01
  7                 -971.38    210.00      0.00  Reservoir
   
   
  Link Results at 15:30:00 hrs:
  ------------------------------------
                       Flow     State
  Link                 m3/h          
  ------------------------------------
  1                  160.82      open
  2                   74.09      open
  3                  723.83      open
  4                   99.04      open
  5                   61.04      open
  6                  520.71      open
  7                  234.50      open
  8                  971.38      open
   
   
  Node Results at 15:45:00 hrs:
  ----------------------------------------------
                     Demand      Head  Pressure
  Node                 m3/h         m         m
  ----------------------------------------------
  1                   85.62    194.36     34.36
  2                   85.62    204.53     54.53
  3                  231.17    184.53     34.53
  4                  102.74    201.35     46.35
  5                  171.24    191.40     31.40
  6                  282.54    198.29     33.29
  7                 -958.92    210.00      0.00  Reservoir
   
   
  Link Results at 15:45:00 hrs:
  ------------------------------------
                       Flow     State
  Link                 m3/h          
  ------------------------------------
  1                  158.76      open
  2                   73.14      open
  3                  714.54      open
  4                   97.77      open
  5                   60.26      open
  6                  514.03      open
  7                  231.50      open
  8                  958.92      open
   
   
  Node Results at 16:00:00 hrs:
  ----------------------------------------------
                     Demand      Head  Pressure
  Node                 m3/h         m         m
  ----------------------------------------------
  1                   90.32    192.73     32.73
  2                   90.32    203.96     53.96
  3                  243.86    181.88     31.88
  4                  108.38    200.45     45.45
  5                  180.64    189.46     29.46
  6                  298.05    197.07     32.07
  7                -1011.58    210.00      0.00  Reservoir
   
   
  Link Results at 16:00:00 hrs:
  ------------------------------------
                       Flow     State
  Link                 m3/h          
  ------------------------------------
  1                  167.48      open
  2                   77.16      open
  3                  753.78      open
  4                  103.14      open
  5                   63.57      open
  6                  542.26      open
  7                  244.21      open
  8                 1011.58      open
   
   
  Node Results at 16:15:00 hrs:
  ----------------------------------------------
                     Demand      Head  Pressure
  Node                 m3/h         m         m
  ----------------------------------------------
  1                   91.26    192.40     32.40
  2                   91.26    203.84     53.84
  3                  246.40    181.34     31.34
  4                  109.51    200.27     45.27
  5                  182.52    189.06     29.06
  6                  301.15    196.82     31.82
  7                -1022.09    210.00      0.00  Reservoir
   
   
  Link Results at 16:15:00 hrs:
  ------------------------------------
                       Flow     State
  Link                 m3/h          
  ------------------------------------
  1                  169.22      open
  2                   77.96      open
  3                  761.61      open
  4                  104.21      open
  5                   64.23      open
  6                  547.90      open
  7                  246.74      open
  8                 1022.09      open
   
   
  Node Results at 16:30:00 hrs:
  ----------------------------------------------
                     Demand      Head  Pressure
  Node                 m3/h         m         m
  ----------------------------------------------
  1                   91.39    192.35     32.35
  2                   91.39    203.82     53.82
  3                  246.76    181.26     31.26
  4                  109.67    200.24     45.24
  5                  182.78    189.01     29.01
  6                  301.59    196.79     31.79
  7                -1023.59    210.00      0.00  Reservoir
   
   
  Link Results at 16:30:00 hrs:
  ------------------------------------
                       Flow     State
  Link                 m3/h          
  ------------------------------------
  1                  169.47      open
  2                   78.07      open
  3                  762.73      open
  4                  104.36      open
  5                   64.32      open
  6                  548.70      open
  7                  247.11      open
  8                 1023.59      open
   
   
  Node Results at 16:45:00 hrs:
  ----------------------------------------------
                     Demand      Head  Pressure
  Node                 m3/h         m         m
  ----------------------------------------------
  1                   98.11    189.87     29.87
  2                   98.11    202.96     52.96
  3                  264.90    177.23     27.23
  4                  117.73    198.87     43.87
  5                  196.22    186.06     26.06
  6                  323.77    194.93     29.93
  7                -1098.85    210.00      0.00  Reservoir
   
   
  Link Results at 16:45:00 hrs:
  ------------------------------------
                       Flow     State
  Link                 m3/h          
  ------------------------------------
  1                  181.93      open
  2                   83.81      open
  3                  818.81      open
  4                  112.03      open
  5                   69.05      open
  6                  589.04      open
  7                  265.28      open
  8                 1098.85      open
   
   
  Node Results at 17:00:00 hrs:
  ----------------------------------------------
                     Demand      Head  Pressure
  Node                 m3/h         m         m
  ----------------------------------------------
  1                   98.19    189.84     29.84
  2                   98.19    202.95     52.95
  3                  265.10    177.18     27.18
  4                  117.82    198.86     43.86
  5                  196.37    186.03     26.03
  6                  324.01    194.91     29.91
  7                -1099.68    210.00      0.00  Reservoir
   
   
  Link Results at 17:00:00 hrs:
  ------------------------------------
                       Flow     State
  Link                 m3/h          
  ------------------------------------
  1                  182.06      open
  2                   83.88      open
  3                  819.43      open
  4                  112.12      open
  5                   69.11      open
  6                  589.49      open
  7                  265.48      open
  8                 1099.68      open
   
   
  Node Results at 17:15:00 hrs:
  ----------------------------------------------
                     Demand      Head  Pressure
  Node                 m3/h         m         m
  ----------------------------------------------
  1                  102.77    188.07     28.07
  2                  102.77    202.32     52.32
  3                  277.48    174.28     24.28
  4                  123.33    197.87     42.87
  5                  205.54    183.91     23.91
  6                  339.14    193.58     28.58
  7                -1151.03    210.00      0.00  Reservoir
   
   
  Link Results at 17:15:00 hrs:
  ------------------------------------
                       Flow     State
  Link                 m3/h          
  ------------------------------------
  1                  190.57      open
  2                   87.79      open
  3                  857.70      open
  4                  117.35      open
  5                   72.33      open
  6                  617.02      open
  7                  277.87      open
  8                 1151.03      open
   
   
  Node Results at 17:30:00 hrs:
  ----------------------------------------------
                     Demand      Head  Pressure
  Node                 m3/h         m         m
  ----------------------------------------------
  1                  106.73    186.48     26.48
  2                  106.73    201.77     51.77
  3                  288.17    171.69     21.69
  4                  128.08    196.99     41.99
  5                  213.46    182.02     22.02
  6                  352.21    192.39     27.39
  7                -1195.38    210.00      0.00  Reservoir
   
   
  Link Results at 17:30:00 hrs:
  ------------------------------------
                       Flow     State
  Link                 m3/h          
  ------------------------------------
  1                  197.91      open
  2                   91.18      open
  3                  890.74      open
  4                  121.87      open
  5                   75.12      open
  6                  640.79      open
  7                  288.58      open
  8                 1195.38      open
   
   
  Node Results at 17:45:00 hrs:
  ----------------------------------------------
                     Demand      Head  Pressure
  Node                 m3/h         m         m
  ----------------------------------------------
  1                  107.91    185.99     25.99
  2                  107.91    201.60     51.60
  3                  291.35    170.91     20.91
  4                  129.49    196.73     41.73
  5                  215.82    181.45     21.45
  6                  356.10    192.03     27.03
  7                -1208.57    210.00      0.00  Reservoir
   
   
  Link Results at 17:45:00 hrs:
  ------------------------------------
                       Flow     State
  Link                 m3/h          
  ------------------------------------
  1                  200.09      open
  2                   92.18      open
  3                  900.57      open
  4                  123.22      open
  5                   75.95      open
  6                  647.86      open
  7                  291.77      open
  8                 1208.57      open
   
   
  Node Results at 18:00:00 hrs:
  ----------------------------------------------
                     Demand      Head  Pressure
  Node                 m3/h         m         m
  ----------------------------------------------
  1                  112.51    184.06     24.06
  2                  112.51    200.92     50.92
  3                  303.77    167.77     17.77
  4                  135.01    195.66     40.66
  5                  225.01    179.15     19.15
  6                  371.27    190.58     25.58
  7                -1260.08    210.00      0.00  Reservoir
   
   
  Link Results at 18:00:00 hrs:
  ------------------------------------
                       Flow     State
  Link                 m3/h          
  ------------------------------------
  1                  208.62      open
  2                   96.11      open
  3                  938.95      open
  4                  128.47      open
  5                   79.19      open
  6                  675.47      open
  7                  304.20      open
  8                 1260.08      open
   
   
  Node Results at 18:15:00 hrs:
  ----------------------------------------------
                     Demand      Head  Pressure
  Node                 m3/h         m         m
  ----------------------------------------------
  1                  109.57    185.30     25.30
  2                  109.57    201.36     51.36
  3                  295.84    169.78     19.78
  4                  131.49    196.35     41.35
  5                  219.14    180.62     20.62
  6                  361.59    191.51     26.51
  7                -1227.20    210.00      0.00  Reservoir
   
   
  Link Results at 18:15:00 hrs:
  ------------------------------------
                       Flow     State
  Link                 m3/h          
  ------------------------------------
[...]
   
  Link Results at 667:30:00 hrs:
  ------------------------------------
                       Flow     State
  Link                 m3/h          
  ------------------------------------
  1                  229.70      open
  2                  105.82      open
  3                 1033.81      open
  4                  141.45      open
  5                   87.19      open
  6                  743.72      open
  7                  334.93      open
  8                 1387.38      open
   
   
  Node Results at 667:45:00 hrs:
  ----------------------------------------------
                     Demand      Head  Pressure
  Node                 m3/h         m         m
  ----------------------------------------------
  1                  132.04    175.11     15.11
  2                  132.04    197.79     47.79
  3                  356.50    153.19      3.19
  4                  158.44    190.71     35.71
  5                  264.07    168.51      8.51
  6                  435.72    183.88     18.88
  7                -1478.80    210.00      0.00  Reservoir
   
   
  Link Results at 667:45:00 hrs:
  ------------------------------------
                       Flow     State
  Link                 m3/h          
  ------------------------------------
  1                  244.83      open
  2                  112.80      open
  3                 1101.94      open
  4                  150.77      open
  5                   92.93      open
  6                  792.72      open
  7                  357.00      open
  8                 1478.80      open
   
   
  Node Results at 668:00:00 hrs:
  ----------------------------------------------
                     Demand      Head  Pressure
  Node                 m3/h         m         m
  ----------------------------------------------
  1                  129.33    176.43     16.43
  2                  129.33    198.25     48.25
  3                  349.20    155.33      5.33
  4                  155.20    191.44     36.44
  5                  258.66    170.07     10.07
  6                  426.80    184.87     19.87
  7                -1448.52    210.00      0.00  Reservoir
   
   
  Link Results at 668:00:00 hrs:
  ------------------------------------
                       Flow     State
  Link                 m3/h          
  ------------------------------------
  1                  239.82      open
  2                  110.49      open
  3                 1079.37      open
  4                  147.68      open
  5                   91.03      open
  6                  776.49      open
  7                  349.69      open
  8                 1448.52      open
   
   
  Node Results at 668:15:00 hrs:
  ----------------------------------------------
                     Demand      Head  Pressure
  Node                 m3/h         m         m
  ----------------------------------------------
  1                  131.46    175.40     15.40
  2                  131.46    197.89     47.89
  3                  354.94    153.65      3.65
  4                  157.75    190.87     35.87
  5                  262.92    168.84      8.84
  6                  433.82    184.10     19.10
  7                -1472.36    210.00      0.00  Reservoir
   
   
  Link Results at 668:15:00 hrs:
  ------------------------------------
                       Flow     State
  Link                 m3/h          
  ------------------------------------
  1                  243.77      open
  2                  112.30      open
  3                 1097.14      open
  4                  150.11      open
  5                   92.53      open
  6                  789.27      open
  7                  355.45      open
  8                 1472.36      open
   
   
  Node Results at 668:30:00 hrs:
  ----------------------------------------------
                     Demand      Head  Pressure
  Node                 m3/h         m         m
  ----------------------------------------------
  1                  133.46    174.42     14.42
  2                  133.46    197.55     47.55
  3                  360.33    152.06      2.06
  4                  160.15    190.33     35.33
  5                  266.91    167.68      7.68
  6                  440.41    183.36     18.36
  7                -1494.71    210.00      0.00  Reservoir
   
   
  Link Results at 668:30:00 hrs:
  ------------------------------------
                       Flow     State
  Link                 m3/h          
  ------------------------------------
  1                  247.47      open
  2                  114.01      open
  3                 1113.79      open
  4                  152.39      open
  5                   93.93      open
  6                  801.25      open
  7                  360.84      open
  8                 1494.71      open
   
   
  Node Results at 668:45:00 hrs:
  ----------------------------------------------
                     Demand      Head  Pressure
  Node                 m3/h         m         m
  ----------------------------------------------
  1                  128.42    176.86     16.86
  2                  128.42    198.40     48.40
  3                  346.73    156.04      6.04
  4                  154.10    191.68     36.68
  5                  256.84    170.59     10.59
  6                  423.78    185.19     20.19
  7                -1438.30    210.00      0.00  Reservoir
   
   
  Link Results at 668:45:00 hrs:
  ------------------------------------
                       Flow     State
  Link                 m3/h          
  ------------------------------------
  1                  238.12      open
  2                  109.71      open
  3                 1071.75      open
  4                  146.64      open
  5                   90.39      open
  6                  771.01      open
  7                  347.22      open
  8                 1438.30      open
   
   
  Node Results at 669:00:00 hrs:
  ----------------------------------------------
                     Demand      Head  Pressure
  Node                 m3/h         m         m
  ----------------------------------------------
  1                  133.23    174.53     14.53
  2                  133.23    197.59     47.59
  3                  359.72    152.24      2.24
  4                  159.88    190.39     35.39
  5                  266.46    167.81      7.81
  6                  439.66    183.45     18.45
  7                -1492.18    210.00      0.00  Reservoir
   
   
  Link Results at 669:00:00 hrs:
  ------------------------------------
                       Flow     State
  Link                 m3/h          
  ------------------------------------
  1                  247.05      open
  2                  113.82      open
  3                 1111.90      open
  4                  152.14      open
  5                   93.77      open
  6                  799.89      open
  7                  360.23      open
  8                 1492.18      open
   
   
  Node Results at 669:15:00 hrs:
  ----------------------------------------------
                     Demand      Head  Pressure
  Node                 m3/h         m         m
  ----------------------------------------------
  1                  126.90    177.59     17.59
  2                  126.90    198.66     48.66
  3                  342.62    157.22      7.22
  4                  152.28    192.08     37.08
  5                  253.79    171.45     11.45
  6                  418.76    185.74     20.74
  7                -1421.24    210.00      0.00  Reservoir
   
   
  Link Results at 669:15:00 hrs:
  ------------------------------------
                       Flow     State
  Link                 m3/h          
  ------------------------------------
  1                  235.30      open
  2                  108.40      open
  3                 1059.04      open
  4                  144.90      open
  5                   89.31      open
  6                  761.87      open
  7                  343.11      open
  8                 1421.24      open
   
   
  Node Results at 669:30:00 hrs:
  ----------------------------------------------
                     Demand      Head  Pressure
  Node                 m3/h         m         m
  ----------------------------------------------
  1                  127.99    177.07     17.07
  2                  127.99    198.48     48.48
  3                  345.59    156.37      6.37
  4                  153.59    191.79     36.79
  5                  255.99    170.83     10.83
  6                  422.38    185.35     20.35
  7                -1433.54    210.00      0.00  Reservoir
   
   
  Link Results at 669:30:00 hrs:
  ------------------------------------
                       Flow     State
  Link                 m3/h          
  ------------------------------------
  1                  237.34      open
  2                  109.34      open
  3                 1068.21      open
  4                  146.16      open
  5                   90.09      open
  6                  768.46      open
  7                  346.08      open
  8                 1433.54      open
   
   
  Node Results at 669:45:00 hrs:
  ----------------------------------------------
                     Demand      Head  Pressure
  Node                 m3/h         m         m
  ----------------------------------------------
  1                  128.81    176.68     16.68
  2                  128.81    198.34     48.34
  3                  347.79    155.74      5.74
  4                  154.57    191.58     36.58
  5                  257.62    170.36     10.36
  6                  425.07    185.05     20.05
  7                -1442.67    210.00      0.00  Reservoir
   
   
  Link Results at 669:45:00 hrs:
  ------------------------------------
                       Flow     State
  Link                 m3/h          
  ------------------------------------
  1                  238.85      open
  2                  110.04      open
  3                 1075.01      open
  4                  147.09      open
  5                   90.66      open
  6                  773.35      open
  7                  348.28      open
  8                 1442.67      open
   
   
  Node Results at 670:00:00 hrs:
  ----------------------------------------------
                     Demand      Head  Pressure
  Node                 m3/h         m         m
  ----------------------------------------------
  1                  131.72    175.27     15.27
  2                  131.72    197.85     47.85
  3                  355.65    153.44      3.44
  4                  158.07    190.80     35.80
  5                  263.44    168.69      8.69
  6                  434.68    184.00     19.00
  7                -1475.28    210.00      0.00  Reservoir
   
   
  Link Results at 670:00:00 hrs:
  ------------------------------------
                       Flow     State
  Link                 m3/h          
  ------------------------------------
  1                  244.25      open
  2                  112.53      open
  3                 1099.31      open
  4                  150.41      open
  5                   92.71      open
  6                  790.83      open
  7                  356.15      open
  8                 1475.28      open
   
   
  Node Results at 670:15:00 hrs:
  ----------------------------------------------
                     Demand      Head  Pressure
  Node                 m3/h         m         m
  ----------------------------------------------
  1                  128.05    177.04     17.04
  2                  128.05    198.47     48.47
  3                  345.74    156.33      6.33
  4                  153.66    191.78     36.78
  5                  256.10    170.80     10.80
  6                  422.57    185.33     20.33
  7                -1434.18    210.00      0.00  Reservoir
   
   
  Link Results at 670:15:00 hrs:
  ------------------------------------
                       Flow     State
  Link                 m3/h          
  ------------------------------------
  1                  237.44      open
  2                  109.39      open
  3                 1068.68      open
  4                  146.22      open
  5                   90.13      open
  6                  768.80      open
  7                  346.23      open
  8                 1434.18      open
   
   
  Node Results at 670:30:00 hrs:
  ----------------------------------------------
                     Demand      Head  Pressure
  Node                 m3/h         m         m
  ----------------------------------------------
  1                  123.13    179.35     19.35
  2                  123.13    199.27     49.27
  3                  332.45    160.08     10.08
  4                  147.76    193.05     38.05
  5                  246.26    173.54     13.54
  6                  406.33    187.05     22.05
  7                -1379.07    210.00      0.00  Reservoir
   
   
  Link Results at 670:30:00 hrs:
  ------------------------------------
                       Flow     State
  Link                 m3/h          
  ------------------------------------
  1                  228.32      open
  2                  105.19      open
  3                 1027.62      open
  4                  140.60      open
  5                   86.66      open
  6                  739.26      open
  7                  332.93      open
  8                 1379.07      open
   
   
  Node Results at 670:45:00 hrs:
  ----------------------------------------------
                     Demand      Head  Pressure
  Node                 m3/h         m         m
  ----------------------------------------------
  1                  123.52    179.17     19.17
  2                  123.52    199.21     49.21
  3                  333.50    159.79      9.79
  4                  148.22    192.95     37.95
  5                  247.04    173.33     13.33
  6                  407.62    186.92     21.92
  7                -1383.43    210.00      0.00  Reservoir
   
   
  Link Results at 670:45:00 hrs:
  ------------------------------------
                       Flow     State
  Link                 m3/h          
  ------------------------------------
  1                  229.04      open
  2                  105.52      open
  3                 1030.86      open
  4                  141.05      open
  5                   86.94      open
  6                  741.59      open
  7                  333.98      open
  8                 1383.43      open
   
   
  Node Results at 671:00:00 hrs:
  ----------------------------------------------
                     Demand      Head  Pressure
  Node                 m3/h         m         m
  ----------------------------------------------
  1                  118.12    181.62     21.62
  2                  118.12    200.07     50.07
  3                  318.92    163.78     13.78
  4                  141.74    194.31     39.31
  5                  236.24    176.24     16.24
  6                  389.79    188.75     23.75
  7                -1322.92    210.00      0.00  Reservoir
   
   
  Link Results at 671:00:00 hrs:
  ------------------------------------
                       Flow     State
  Link                 m3/h          
  ------------------------------------
  1                  219.02      open
  2                  100.91      open
  3                  985.78      open
  4                  134.88      open
  5                   83.13      open
  6                  709.16      open
  7                  319.37      open
  8                 1322.92      open
   
   
  Node Results at 671:15:00 hrs:
  ----------------------------------------------
                     Demand      Head  Pressure
  Node                 m3/h         m         m
  ----------------------------------------------
  1                  116.37    182.39     22.39
  2                  116.37    200.34     50.34
  3                  314.20    165.04     15.04
  4                  139.64    194.74     39.74
  5                  232.74    177.16     17.16
  6                  384.02    189.33     24.33
  7                -1303.35    210.00      0.00  Reservoir
   
   
  Link Results at 671:15:00 hrs:
  ------------------------------------
                       Flow     State
  Link                 m3/h          
  ------------------------------------
  1                  215.78      open
  2                   99.41      open
  3                  971.19      open
  4                  132.88      open
  5                   81.90      open
  6                  698.67      open
  7                  314.64      open
  8                 1303.35      open
   
   
  Node Results at 671:30:00 hrs:
  ----------------------------------------------
                     Demand      Head  Pressure
  Node                 m3/h         m         m
  ----------------------------------------------
  1                  107.27    186.26     26.26
  2                  107.27    201.69     51.69
  3                  289.62    171.34     21.34
  4                  128.72    196.87     41.87
  5                  214.53    181.76     21.76
  6                  353.98    192.23     27.23
  7                -1201.39    210.00      0.00  Reservoir
   
   
  Link Results at 671:30:00 hrs:
  ------------------------------------
                       Flow     State
  Link                 m3/h          
  ------------------------------------
  1                  198.90      open
  2                   91.64      open
  3                  895.22      open
  4                  122.49      open
  5                   75.50      open
  6                  644.01      open
  7                  290.03      open
  8                 1201.39      open
   
   
  Node Results at 671:45:00 hrs:
  ----------------------------------------------
                     Demand      Head  Pressure
  Node                 m3/h         m         m
  ----------------------------------------------
  1                   99.96    189.16     29.16
  2                   99.96    202.71     52.71
  3                  269.89    176.07     26.07
  4                  119.95    198.48     43.48
  5                  199.92    185.22     25.22
  6                  329.87    194.40     29.40
  7                -1119.56    210.00      0.00  Reservoir
   
   
  Link Results at 671:45:00 hrs:
  ------------------------------------
                       Flow     State
  Link                 m3/h          
  ------------------------------------
  1                  185.36      open
  2                   85.39      open
  3                  834.25      open
  4                  114.14      open
  5                   70.36      open
  6                  600.15      open
  7                  270.28      open
  8                 1119.56      open
   
   
  Node Results at 672:00:00 hrs:
  ----------------------------------------------
                     Demand      Head  Pressure
  Node                 m3/h         m         m
  ----------------------------------------------
  1                   93.18    191.71     31.71
  2                   93.18    203.60     53.60
  3                  251.57    180.21     30.21
  4                  111.81    199.89     44.89
  5                  186.35    188.24     28.24
  6                  307.48    196.31     31.31
  7                -1043.56    210.00      0.00  Reservoir
   
   
  Link Results at 672:00:00 hrs:
  ------------------------------------
                       Flow     State
  Link                 m3/h          
  ------------------------------------
  1                  172.77      open
  2                   79.60      open
  3                  777.62      open
  4                  106.40      open
  5                   65.58      open
  6                  559.41      open
  7                  251.93      open
  8                 1043.56      open
   
  Analysis ended Wed Mar  1 15:52:28 2023
