  Page 1                                    Tue Mar  7 12:01:37 2023

  ******************************************************************
  *                           E P A N E T                          *
  *                   Hydraulic and Water Quality                  *
  *                   Analysis for Pipe Networks                   *
  *                         Version 2.2                            *
  ******************************************************************
  
  Analysis begun Tue Mar  7 12:01:37 2023

   
  Node Results at 0:00:00 hrs:
  ----------------------------------------------
                     Demand      Head  Pressure
  Node                 m3/h         m         m
  ----------------------------------------------
  1                   99.53    189.33     29.33
  2                   99.53    202.77     52.77
  3                  268.72    176.35     26.35
  4                  119.43    198.57     43.57
  5                  199.05    185.42     25.42
  6                  328.44    194.53     29.53
  7                -1114.69    210.00      0.00  Reservoir
   
   
  Link Results at 0:00:00 hrs:
  ------------------------------------
                       Flow     State
  Link                 m3/h          
  ------------------------------------
  1                  184.55      open
  2                   85.02      open
  3                  830.62      open
  4                  113.65      open
  5                   70.05      open
  6                  597.54      open
  7                  269.10      open
  8                 1114.69      open
   
   
  Node Results at 0:05:00 hrs:
  ----------------------------------------------
                     Demand      Head  Pressure
  Node                 m3/h         m         m
  ----------------------------------------------
  1                   88.26    193.46     33.46
  2                   88.26    204.21     54.21
  3                  238.29    183.06     33.06
  4                  105.91    200.85     45.85
  5                  176.51    190.32     30.32
  6                  291.25    197.62     32.62
  7                 -988.47    210.00      0.00  Reservoir
   
   
  Link Results at 0:05:00 hrs:
  ------------------------------------
                       Flow     State
  Link                 m3/h          
  ------------------------------------
  1                  163.65      open
  2                   75.40      open
  3                  736.56      open
  4                  100.78      open
  5                   62.12      open
  6                  529.87      open
  7                  238.63      open
  8                  988.47      open
   
   
  Node Results at 0:10:00 hrs:
  ----------------------------------------------
                     Demand      Head  Pressure
  Node                 m3/h         m         m
  ----------------------------------------------
  1                   87.51    193.71     33.71
  2                   87.51    204.30     54.30
  3                  236.28    183.48     33.48
  4                  105.01    201.00     46.00
  5                  175.02    190.63     30.63
  6                  288.78    197.81     32.81
  7                 -980.11    210.00      0.00  Reservoir
   
   
  Link Results at 0:10:00 hrs:
  ------------------------------------
                       Flow     State
  Link                 m3/h          
  ------------------------------------
  1                  162.27      open
  2                   74.76      open
  3                  730.33      open
  4                   99.93      open
  5                   61.59      open
  6                  525.39      open
  7                  236.61      open
  8                  980.11      open
   
   
  Node Results at 0:15:00 hrs:
  ----------------------------------------------
                     Demand      Head  Pressure
  Node                 m3/h         m         m
  ----------------------------------------------
  1                   90.07    192.82     32.82
  2                   90.07    203.99     53.99
  3                  243.19    182.03     32.03
  4                  108.08    200.50     45.50
  5                  180.14    189.57     29.57
  6                  297.23    197.14     32.14
  7                -1008.77    210.00      0.00  Reservoir
   
   
  Link Results at 0:15:00 hrs:
  ------------------------------------
                       Flow     State
  Link                 m3/h          
  ------------------------------------
  1                  167.01      open
  2                   76.94      open
  3                  751.69      open
  4                  102.85      open
  5                   63.39      open
  6                  540.76      open
  7                  243.53      open
  8                 1008.77      open
   
   
  Node Results at 0:20:00 hrs:
  ----------------------------------------------
                     Demand      Head  Pressure
  Node                 m3/h         m         m
  ----------------------------------------------
  1                   84.95    194.59     34.59
  2                   84.95    204.61     54.61
  3                  229.36    184.90     34.90
  4                  101.94    201.48     46.48
  5                  169.90    191.67     31.67
  6                  280.33    198.46     33.46
  7                 -951.42    210.00      0.00  Reservoir
   
   
  Link Results at 0:20:00 hrs:
  ------------------------------------
                       Flow     State
  Link                 m3/h          
  ------------------------------------
  1                  157.52      open
  2                   72.57      open
  3                  708.95      open
  4                   97.00      open
  5                   59.79      open
  6                  510.01      open
  7                  229.68      open
  8                  951.42      open
   
   
  Node Results at 0:25:00 hrs:
  ----------------------------------------------
                     Demand      Head  Pressure
  Node                 m3/h         m         m
  ----------------------------------------------
  1                   69.31    199.43     39.43
  2                   69.31    206.30     56.30
  3                  187.13    192.78     42.78
  4                   83.17    204.15     49.15
  5                  138.62    197.42     37.42
  6                  228.72    202.08     37.08
  7                 -776.26    210.00      0.00  Reservoir
   
   
  Link Results at 0:25:00 hrs:
  ------------------------------------
                       Flow     State
  Link                 m3/h          
  ------------------------------------
  1                  128.52      open
  2                   59.21      open
  3                  578.43      open
  4                   79.14      open
  5                   48.78      open
  6                  416.12      open
  7                  187.40      open
  8                  776.26      open
   
   
  Node Results at 0:30:00 hrs:
  ----------------------------------------------
                     Demand      Head  Pressure
  Node                 m3/h         m         m
  ----------------------------------------------
  1                   75.15    197.72     37.72
  2                   75.15    205.70     55.70
  3                  202.89    190.00     40.00
  4                   90.18    203.21     48.21
  5                  150.29    195.39     35.39
  6                  247.98    200.81     35.81
  7                 -841.63    210.00      0.00  Reservoir
   
   
  Link Results at 0:30:00 hrs:
  ------------------------------------
                       Flow     State
  Link                 m3/h          
  ------------------------------------
  1                  139.34      open
  2                   64.20      open
  3                  627.15      open
  4                   85.81      open
  5                   52.89      open
  6                  451.16      open
  7                  203.18      open
  8                  841.63      open
   
   
  Node Results at 0:35:00 hrs:
  ----------------------------------------------
                     Demand      Head  Pressure
  Node                 m3/h         m         m
  ----------------------------------------------
  1                   68.15    199.75     39.75
  2                   68.15    206.41     56.41
  3                  184.01    193.31     43.31
  4                   81.78    204.33     49.33
  5                  136.31    197.81     37.81
  6                  224.91    202.33     37.33
  7                 -763.32    210.00      0.00  Reservoir
   
   
  Link Results at 0:35:00 hrs:
  ------------------------------------
                       Flow     State
  Link                 m3/h          
  ------------------------------------
  1                  126.37      open
  2                   58.22      open
  3                  568.79      open
  4                   77.82      open
  5                   47.97      open
  6                  409.18      open
  7                  184.27      open
  8                  763.32      open
   
   
  Node Results at 0:40:00 hrs:
  ----------------------------------------------
                     Demand      Head  Pressure
  Node                 m3/h         m         m
  ----------------------------------------------
  1                   66.25    200.27     40.27
  2                   66.25    206.60     56.60
  3                  178.88    194.16     44.16
  4                   79.50    204.62     49.62
  5                  132.51    198.43     38.43
  6                  218.64    202.72     37.72
  7                 -742.04    210.00      0.00  Reservoir
   
   
  Link Results at 0:40:00 hrs:
  ------------------------------------
                       Flow     State
  Link                 m3/h          
  ------------------------------------
  1                  122.85      open
  2                   56.60      open
  3                  552.93      open
  4                   75.65      open
  5                   46.63      open
  6                  397.77      open
  7                  179.14      open
  8                  742.04      open
   
   
  Node Results at 0:45:00 hrs:
  ----------------------------------------------
                     Demand      Head  Pressure
  Node                 m3/h         m         m
  ----------------------------------------------
  1                   66.34    200.25     40.25
  2                   66.34    206.59     56.59
  3                  179.12    194.12     44.12
  4                   79.61    204.61     49.61
  5                  132.68    198.40     38.40
  6                  218.92    202.70     37.70
  7                 -743.02    210.00      0.00  Reservoir
   
   
  Link Results at 0:45:00 hrs:
  ------------------------------------
                       Flow     State
  Link                 m3/h          
  ------------------------------------
  1                  123.01      open
  2                   56.67      open
  3                  553.66      open
  4                   75.75      open
  5                   46.69      open
  6                  398.30      open
  7                  179.37      open
  8                  743.02      open
   
   
  Node Results at 0:50:00 hrs:
  ----------------------------------------------
                     Demand      Head  Pressure
  Node                 m3/h         m         m
  ----------------------------------------------
  1                   63.55    201.00     41.00
  2                   63.55    206.85     56.85
  3                  171.58    195.34     45.34
  4                   76.26    205.02     50.02
  5                  127.10    199.29     39.29
  6                  209.71    203.26     38.26
  7                 -711.74    210.00      0.00  Reservoir
   
   
  Link Results at 0:50:00 hrs:
  ------------------------------------
                       Flow     State
  Link                 m3/h          
  ------------------------------------
  1                  117.84      open
  2                   54.29      open
  3                  530.35      open
  4                   72.56      open
  5                   44.73      open
  6                  381.53      open
  7                  171.82      open
  8                  711.74      open
   
   
  Node Results at 0:55:00 hrs:
  ----------------------------------------------
                     Demand      Head  Pressure
  Node                 m3/h         m         m
  ----------------------------------------------
  1                   66.79    200.13     40.13
  2                   66.79    206.55     56.55
  3                  180.32    193.92     43.92
  4                   80.14    204.54     49.54
  5                  133.57    198.26     38.26
  6                  220.39    202.61     37.61
  7                 -748.00    210.00      0.00  Reservoir
   
   
  Link Results at 0:55:00 hrs:
  ------------------------------------
                       Flow     State
  Link                 m3/h          
  ------------------------------------
  1                  123.84      open
  2                   57.05      open
  3                  557.37      open
  4                   76.26      open
  5                   47.01      open
  6                  400.97      open
  7                  180.58      open
  8                  748.00      open
   
   
  Node Results at 1:00:00 hrs:
  ----------------------------------------------
                     Demand      Head  Pressure
  Node                 m3/h         m         m
  ----------------------------------------------
  1                   62.74    201.21     41.21
  2                   62.74    206.92     56.92
  3                  169.40    195.68     45.68
  4                   75.29    205.14     50.14
  5                  125.48    199.54     39.54
  6                  207.04    203.42     38.42
  7                 -702.69    210.00      0.00  Reservoir
   
   
  Link Results at 1:00:00 hrs:
  ------------------------------------
                       Flow     State
  Link                 m3/h          
  ------------------------------------
  1                  116.34      open
  2                   53.60      open
  3                  523.61      open
  4                   71.64      open
  5                   44.16      open
  6                  376.68      open
  7                  169.64      open
  8                  702.69      open
   
   
  Node Results at 1:05:00 hrs:
  ----------------------------------------------
                     Demand      Head  Pressure
  Node                 m3/h         m         m
  ----------------------------------------------
  1                   59.14    202.12     42.12
  2                   59.14    207.24     57.24
  3                  159.68    197.16     47.16
  4                   70.97    205.64     50.64
  5                  118.28    200.62     40.62
  6                  195.17    204.10     39.10
  7                 -662.39    210.00      0.00  Reservoir
   
   
  Link Results at 1:05:00 hrs:
  ------------------------------------
                       Flow     State
  Link                 m3/h          
  ------------------------------------
  1                  109.67      open
  2                   50.52      open
  3                  493.58      open
  4                   67.53      open
  5                   41.63      open
  6                  355.08      open
  7                  159.91      open
  8                  662.39      open
   
   
  Node Results at 1:10:00 hrs:
  ----------------------------------------------
                     Demand      Head  Pressure
  Node                 m3/h         m         m
  ----------------------------------------------
  1                   59.09    202.13     42.13
  2                   59.09    207.25     57.25
  3                  159.53    197.19     47.19
  4                   70.90    205.65     50.65
  5                  118.17    200.64     40.64
  6                  194.98    204.11     39.11
  7                 -661.75    210.00      0.00  Reservoir
   
   
  Link Results at 1:10:00 hrs:
  ------------------------------------
                       Flow     State
  Link                 m3/h          
  ------------------------------------
  1                  109.56      open
  2                   50.48      open
  3                  493.11      open
  4                   67.47      open
  5                   41.59      open
  6                  354.74      open
  7                  159.76      open
  8                  661.75      open
   
   
  Node Results at 1:15:00 hrs:
  ----------------------------------------------
                     Demand      Head  Pressure
  Node                 m3/h         m         m
  ----------------------------------------------
  1                   57.64    202.49     42.49
  2                   57.64    207.37     57.37
  3                  155.62    197.76     47.76
  4                   69.16    205.85     50.85
  5                  115.27    201.06     41.06
  6                  190.20    204.37     39.37
  7                 -645.52    210.00      0.00  Reservoir
   
   
  Link Results at 1:15:00 hrs:
  ------------------------------------
                       Flow     State
  Link                 m3/h          
  ------------------------------------
  1                  106.87      open
  2                   49.24      open
  3                  481.01      open
  4                   65.81      open
  5                   40.57      open
  6                  346.03      open
  7                  155.84      open
  8                  645.52      open
   
   
  Node Results at 1:20:00 hrs:
  ----------------------------------------------
                     Demand      Head  Pressure
  Node                 m3/h         m         m
  ----------------------------------------------
  1                   60.54    201.77     41.77
  2                   60.54    207.12     57.12
  3                  163.45    196.60     46.60
  4                   72.64    205.45     50.45
  5                  121.07    200.21     40.21
  6                  199.77    203.84     38.84
  7                 -678.01    210.00      0.00  Reservoir
   
   
  Link Results at 1:20:00 hrs:
  ------------------------------------
                       Flow     State
  Link                 m3/h          
  ------------------------------------
  1                  112.25      open
  2                   51.71      open
  3                  505.22      open
  4                   69.13      open
  5                   42.61      open
  6                  363.45      open
  7                  163.68      open
  8                  678.01      open
   
   
  Node Results at 1:25:00 hrs:
  ----------------------------------------------
                     Demand      Head  Pressure
  Node                 m3/h         m         m
  ----------------------------------------------
  1                   54.02    203.33     43.33
  2                   54.02    207.67     57.67
  3                  145.86    199.15     49.15
  4                   64.83    206.31     51.31
  5                  108.04    202.07     42.07
  6                  178.27    205.01     40.01
  7                 -605.04    210.00      0.00  Reservoir
   
   
  Link Results at 1:25:00 hrs:
  ------------------------------------
                       Flow     State
  Link                 m3/h          
  ------------------------------------
  1                  100.17      open
  2                   46.15      open
  3                  450.85      open
  4                   61.69      open
  5                   38.02      open
  6                  324.33      open
  7                  146.06      open
  8                  605.04      open
   
   
  Node Results at 1:30:00 hrs:
  ----------------------------------------------
                     Demand      Head  Pressure
  Node                 m3/h         m         m
  ----------------------------------------------
  1                   54.92    203.13     43.13
  2                   54.92    207.60     57.60
  3                  148.28    198.81     48.81
  4                   65.90    206.20     51.20
  5                  109.84    201.83     41.83
  6                  181.23    204.86     39.86
  7                 -615.10    210.00      0.00  Reservoir
   
   
  Link Results at 1:30:00 hrs:
  ------------------------------------
                       Flow     State
  Link                 m3/h          
  ------------------------------------
  1                  101.84      open
  2                   46.92      open
  3                  458.34      open
  4                   62.71      open
  5                   38.65      open
  6                  329.73      open
  7                  148.49      open
  8                  615.10      open
   
   
  Node Results at 1:35:00 hrs:
  ----------------------------------------------
                     Demand      Head  Pressure
  Node                 m3/h         m         m
  ----------------------------------------------
  1                   50.45    204.13     44.13
  2                   50.45    207.94     57.94
  3                  136.23    200.44     50.44
  4                   60.55    206.75     51.75
  5                  100.91    203.01     43.01
  6                  166.50    205.60     40.60
  7                 -565.09    210.00      0.00  Reservoir
   
   
  Link Results at 1:35:00 hrs:
  ------------------------------------
                       Flow     State
  Link                 m3/h          
  ------------------------------------
  1                   93.56      open
  2                   43.10      open
  3                  421.08      open
  4                   57.61      open
  5                   35.51      open
  6                  302.92      open
  7                  136.42      open
  8                  565.09      open
   
   
  Node Results at 1:40:00 hrs:
  ----------------------------------------------
                     Demand      Head  Pressure
  Node                 m3/h         m         m
  ----------------------------------------------
  1                   44.46    205.35     45.35
  2                   44.46    208.37     58.37
  3                  120.04    202.43     52.43
  4                   53.35    207.43     52.43
  5                   88.92    204.47     44.47
  6                  146.71    206.52     41.52
  7                 -497.94    210.00      0.00  Reservoir
   
   
  Link Results at 1:40:00 hrs:
  ------------------------------------
                       Flow     State
  Link                 m3/h          
  ------------------------------------
  1                   82.44      open
  2                   37.98      open
  3                  371.04      open
  4                   50.77      open
  5                   31.29      open
  6                  266.92      open
  7                  120.21      open
  8                  497.94      open
   
   
  Node Results at 1:45:00 hrs:
  ----------------------------------------------
                     Demand      Head  Pressure
  Node                 m3/h         m         m
  ----------------------------------------------
  1                   53.89    203.36     43.36
  2                   53.89    207.68     57.68
  3                  145.50    199.20     49.20
  4                   64.67    206.33     51.33
  5                  107.78    202.11     42.11
  6                  177.84    205.03     40.03
  7                 -603.56    210.00      0.00  Reservoir
   
   
  Link Results at 1:45:00 hrs:
  ------------------------------------
                       Flow     State
  Link                 m3/h          
  ------------------------------------
  1                   99.93      open
  2                   46.04      open
  3                  449.75      open
  4                   61.54      open
  5                   37.93      open
  6                  323.54      open
  7                  145.71      open
  8                  603.56      open
   
   
  Node Results at 1:50:00 hrs:
  ----------------------------------------------
                     Demand      Head  Pressure
  Node                 m3/h         m         m
  ----------------------------------------------
  1                   53.89    203.36     43.36
  2                   53.89    207.68     57.68
  3                  145.50    199.19     49.19
  4                   64.67    206.33     51.33
  5                  107.78    202.11     42.11
  6                  177.84    205.03     40.03
  7                 -603.57    210.00      0.00  Reservoir
   
   
  Link Results at 1:50:00 hrs:
  ------------------------------------
                       Flow     State
  Link                 m3/h          
  ------------------------------------
  1                   99.93      open
  2                   46.04      open
  3                  449.75      open
  4                   61.54      open
  5                   37.93      open
  6                  323.55      open
  7                  145.71      open
  8                  603.57      open
   
   
  Node Results at 1:55:00 hrs:
  ----------------------------------------------
                     Demand      Head  Pressure
  Node                 m3/h         m         m
  ----------------------------------------------
  1                   48.36    204.57     44.57
  2                   48.36    208.10     58.10
  3                  130.58    201.16     51.16
  4                   58.04    207.00     52.00
  5                   96.73    203.54     43.54
  6                  159.60    205.93     40.93
  7                 -541.69    210.00      0.00  Reservoir
   
   
  Link Results at 1:55:00 hrs:
  ------------------------------------
                       Flow     State
  Link                 m3/h          
  ------------------------------------
  1                   89.68      open
  2                   41.32      open
  3                  403.64      open
  4                   55.23      open
  5                   34.04      open
  6                  290.37      open
  7                  130.77      open
  8                  541.69      open
   
   
  Node Results at 2:00:00 hrs:
  ----------------------------------------------
                     Demand      Head  Pressure
  Node                 m3/h         m         m
  ----------------------------------------------
  1                   56.81    202.68     42.68
  2                   56.81    207.44     57.44
  3                  153.39    198.09     48.09
  4                   68.17    205.95     50.95
  5                  113.62    201.30     41.30
  6                  187.47    204.52     39.52
  7                 -636.27    210.00      0.00  Reservoir
   
   
  Link Results at 2:00:00 hrs:
  ------------------------------------
                       Flow     State
  Link                 m3/h          
  ------------------------------------
  1                  105.34      open
  2                   48.53      open
  3                  474.12      open
  4                   64.87      open
  5                   39.98      open
  6                  341.07      open
  7                  153.60      open
  8                  636.27      open
   
   
  Node Results at 2:05:00 hrs:
  ----------------------------------------------
                     Demand      Head  Pressure
  Node                 m3/h         m         m
  ----------------------------------------------
  1                   45.06    205.24     45.24
  2                   45.06    208.33     58.33
  3                  121.66    202.24     52.24
  4                   54.07    207.37     52.37
  5                   90.12    204.33     44.33
  6                  148.69    206.43     41.43
  7                 -504.65    210.00      0.00  Reservoir
   
   
  Link Results at 2:05:00 hrs:
  ------------------------------------
                       Flow     State
  Link                 m3/h          
  ------------------------------------
  1                   83.55      open
  2                   38.49      open
  3                  376.04      open
  4                   51.45      open
  5                   31.71      open
  6                  270.52      open
  7                  121.83      open
  8                  504.65      open
   
   
  Node Results at 2:10:00 hrs:
  ----------------------------------------------
                     Demand      Head  Pressure
  Node                 m3/h         m         m
  ----------------------------------------------
  1                   48.84    204.47     44.47
  2                   48.84    208.06     58.06
  3                  131.88    200.99     50.99
  4                   58.61    206.94     51.94
  5                   97.69    203.42     43.42
  6                  161.18    205.86     40.86
  7                 -547.04    210.00      0.00  Reservoir
   
   
  Link Results at 2:10:00 hrs:
  ------------------------------------
                       Flow     State
  Link                 m3/h          
  ------------------------------------
  1                   90.57      open
  2                   41.73      open
  3                  407.63      open
  4                   55.77      open
  5                   34.38      open
  6                  293.24      open
  7                  132.06      open
  8                  547.04      open
   
   
  Node Results at 2:15:00 hrs:
  ----------------------------------------------
                     Demand      Head  Pressure
  Node                 m3/h         m         m
  ----------------------------------------------
  1                   47.49    204.75     44.75
  2                   47.49    208.16     58.16
  3                  128.22    201.45     51.45
  4                   56.98    207.10     52.10
  5                   94.97    203.76     43.76
  6                  156.71    206.07     41.07
  7                 -531.86    210.00      0.00  Reservoir
   
   
  Link Results at 2:15:00 hrs:
  ------------------------------------
                       Flow     State
  Link                 m3/h          
  ------------------------------------
  1                   88.05      open
  2                   40.57      open
  3                  396.31      open
  4                   54.23      open
  5                   33.42      open
  6                  285.10      open
  7                  128.40      open
  8                  531.86      open
   
   
  Node Results at 2:20:00 hrs:
  ----------------------------------------------
                     Demand      Head  Pressure
  Node                 m3/h         m         m
  ----------------------------------------------
  1                   51.66    203.86     43.86
  2                   51.66    207.85     57.85
  3                  139.50    200.01     50.01
  4                   62.00    206.61     51.61
  5                  103.33    202.70     42.70
  6                  170.49    205.41     40.41
  7                 -578.65    210.00      0.00  Reservoir
   
   
  Link Results at 2:20:00 hrs:
  ------------------------------------
                       Flow     State
  Link                 m3/h          
  ------------------------------------
  1                   95.80      open
  2                   44.14      open
  3                  431.18      open
  4                   59.00      open
  5                   36.36      open
  6                  310.19      open
  7                  139.69      open
  8                  578.65      open
   
   
  Node Results at 2:25:00 hrs:
  ----------------------------------------------
                     Demand      Head  Pressure
  Node                 m3/h         m         m
  ----------------------------------------------
  1                   50.67    204.08     44.08
  2                   50.67    207.93     57.93
  3                  136.81    200.36     50.36
  4                   60.81    206.73     51.73
  5                  101.34    202.96     42.96
  6                  167.22    205.57     40.57
  7                 -567.52    210.00      0.00  Reservoir
   
   
  Link Results at 2:25:00 hrs:
  ------------------------------------
                       Flow     State
  Link                 m3/h          
  ------------------------------------
  1                   93.96      open
  2                   43.29      open
  3                  422.89      open
  4                   57.86      open
  5                   35.66      open
  6                  304.22      open
  7                  137.01      open
  8                  567.52      open
   
   
  Node Results at 2:30:00 hrs:
  ----------------------------------------------
                     Demand      Head  Pressure
  Node                 m3/h         m         m
  ----------------------------------------------
  1                   46.21    205.01     45.01
  2                   46.21    208.25     58.25
  3                  124.75    201.87     51.87
  4                   55.45    207.24     52.24
  5                   92.41    204.06     44.06
  6                  152.48    206.26     41.26
  7                 -517.50    210.00      0.00  Reservoir
   
   
  Link Results at 2:30:00 hrs:
  ------------------------------------
                       Flow     State
  Link                 m3/h          
  ------------------------------------
  1                   85.68      open
  2                   39.47      open
  3                  385.62      open
  4                   52.76      open
  5                   32.52      open
  6                  277.41      open
  7                  124.93      open
  8                  517.50      open
   
   
  Node Results at 2:35:00 hrs:
  ----------------------------------------------
                     Demand      Head  Pressure
  Node                 m3/h         m         m
  ----------------------------------------------
  1                   45.97    205.06     45.06
  2                   45.97    208.27     58.27
  3                  124.12    201.95     51.95
  4                   55.16    207.27     52.27
  5                   91.94    204.12     44.12
  6                  151.70    206.30     41.30
  7                 -514.86    210.00      0.00  Reservoir
   
   
  Link Results at 2:35:00 hrs:
  ------------------------------------
                       Flow     State
  Link                 m3/h          
  ------------------------------------
  1                   85.24      open
  2                   39.27      open
  3                  383.65      open
  4                   52.49      open
  5                   32.35      open
  6                  275.99      open
  7                  124.29      open
  8                  514.86      open
   
   
  Node Results at 2:40:00 hrs:
  ----------------------------------------------
                     Demand      Head  Pressure
  Node                 m3/h         m         m
  ----------------------------------------------
  1                   41.72    205.87     45.87
  2                   41.72    208.55     58.55
  3                  112.66    203.27     53.27
  4                   50.07    207.72     52.72
  5                   83.45    205.09     45.09
  6                  137.69    206.91     41.91
  7                 -467.32    210.00      0.00  Reservoir
   
   
  Link Results at 2:40:00 hrs:
  ------------------------------------
                       Flow     State
  Link                 m3/h          
  ------------------------------------
  1                   77.37      open
  2                   35.64      open
  3                  348.22      open
  4                   47.65      open
  5                   29.37      open
  6                  250.51      open
  7                  112.82      open
  8                  467.32      open
   
   
  Node Results at 2:45:00 hrs:
  ----------------------------------------------
                     Demand      Head  Pressure
  Node                 m3/h         m         m
  ----------------------------------------------
  1                   38.02    206.52     46.52
  2                   38.02    208.78     58.78
  3                  102.64    204.34     54.34
  4                   45.62    208.08     53.08
  5                   76.03    205.86     45.86
  6                  125.45    207.40     42.40
  7                 -425.77    210.00      0.00  Reservoir
   
   
  Link Results at 2:45:00 hrs:
  ------------------------------------
                       Flow     State
  Link                 m3/h          
  ------------------------------------
  1                   70.49      open
  2                   32.48      open
  3                  317.27      open
  4                   43.41      open
  5                   26.76      open
  6                  228.24      open
  7                  102.79      open
  8                  425.77      open
   
   
  Node Results at 2:50:00 hrs:
  ----------------------------------------------
                     Demand      Head  Pressure
  Node                 m3/h         m         m
  ----------------------------------------------
  1                   41.28    205.95     45.95
  2                   41.28    208.58     58.58
  3                  111.45    203.41     53.41
  4                   49.53    207.76     52.76
  5                   82.55    205.18     45.18
  6                  136.21    206.97     41.97
  7                 -462.31    210.00      0.00  Reservoir
   
   
  Link Results at 2:50:00 hrs:
  ------------------------------------
                       Flow     State
  Link                 m3/h          
  ------------------------------------
  1                   76.54      open
  2                   35.26      open
  3                  344.49      open
  4                   47.13      open
  5                   29.05      open
  6                  247.82      open
  7                  111.61      open
  8                  462.31      open
   
   
  Node Results at 2:55:00 hrs:
  ----------------------------------------------
                     Demand      Head  Pressure
  Node                 m3/h         m         m
  ----------------------------------------------
  1                   41.50    205.91     45.91
  2                   41.50    208.57     58.57
  3                  112.04    203.34     53.34
  4                   49.80    207.74     52.74
  5                   82.99    205.14     45.14
  6                  136.94    206.94     41.94
  7                 -464.76    210.00      0.00  Reservoir
   
   
  Link Results at 2:55:00 hrs:
  ------------------------------------
                       Flow     State
  Link                 m3/h          
  ------------------------------------
  1                   76.95      open
  2                   35.45      open
  3                  346.32      open
  4                   47.38      open
  5                   29.21      open
  6                  249.14      open
  7                  112.20      open
  8                  464.76      open
   
   
  Node Results at 3:00:00 hrs:
  ----------------------------------------------
                     Demand      Head  Pressure
  Node                 m3/h         m         m
  ----------------------------------------------
  1                   42.95    205.64     45.64
  2                   42.95    208.47     58.47
  3                  115.97    202.90     52.90
  4                   51.54    207.59     52.59
  5                   85.91    204.81     44.81
  6                  141.74    206.74     41.74
  7                 -481.07    210.00      0.00  Reservoir
   
   
  Link Results at 3:00:00 hrs:
  ------------------------------------
                       Flow     State
  Link                 m3/h          
  ------------------------------------
  1                   79.65      open
  2                   36.69      open
  3                  358.47      open
  4                   49.05      open
  5                   30.23      open
  6                  257.88      open
  7                  116.14      open
  8                  481.07      open
   
   
  Node Results at 3:05:00 hrs:
  ----------------------------------------------
                     Demand      Head  Pressure
  Node                 m3/h         m         m
  ----------------------------------------------
  1                   41.63    205.89     45.89
  2                   41.63    208.56     58.56
  3                  112.39    203.30     53.30
  4                   49.95    207.73     52.73
  5                   83.25    205.11     45.11
  6                  137.37    206.92     41.92
  7                 -466.22    210.00      0.00  Reservoir
   
   
  Link Results at 3:05:00 hrs:
  ------------------------------------
                       Flow     State
  Link                 m3/h          
  ------------------------------------
  1                   77.19      open
  2                   35.56      open
  3                  347.40      open
  4                   47.53      open
  5                   29.30      open
  6                  249.92      open
  7                  112.55      open
  8                  466.22      open
   
   
  Node Results at 3:10:00 hrs:
  ----------------------------------------------
                     Demand      Head  Pressure
  Node                 m3/h         m         m
  ----------------------------------------------
  1                   36.74    206.74     46.74
  2                   36.74    208.86     58.86
  3                   99.19    204.69     54.69
  4                   44.09    208.20     53.20
  5                   73.48    206.12     46.12
  6                  121.24    207.56     42.56
  7                 -411.47    210.00      0.00  Reservoir
   
   
  Link Results at 3:10:00 hrs:
  ------------------------------------
                       Flow     State
  Link                 m3/h          
  ------------------------------------
  1                   68.12      open
  2                   31.38      open
  3                  306.61      open
  4                   41.95      open
  5                   25.86      open
  6                  220.57      open
  7                   99.33      open
  8                  411.47      open
   
   
  Node Results at 3:15:00 hrs:
  ----------------------------------------------
                     Demand      Head  Pressure
  Node                 m3/h         m         m
  ----------------------------------------------
  1                   35.73    206.90     46.90
  2                   35.73    208.92     58.92
  3                   96.47    204.95     54.95
  4                   42.88    208.29     53.29
  5                   71.46    206.31     46.31
  6                  117.91    207.68     42.68
  7                 -400.18    210.00      0.00  Reservoir
   
   
  Link Results at 3:15:00 hrs:
  ------------------------------------
                       Flow     State
  Link                 m3/h          
  ------------------------------------
  1                   66.25      open
  2                   30.52      open
  3                  298.19      open
  4                   40.80      open
  5                   25.15      open
  6                  214.52      open
  7                   96.61      open
  8                  400.18      open
   
   
  Node Results at 3:20:00 hrs:
  ----------------------------------------------
                     Demand      Head  Pressure
  Node                 m3/h         m         m
  ----------------------------------------------
  1                   32.98    207.33     47.33
  2                   32.98    209.07     59.07
  3                   89.03    205.65     55.65
  4                   39.57    208.52     53.52
  5                   65.95    206.82     46.82
  6                  108.82    208.00     43.00
  7                 -369.33    210.00      0.00  Reservoir
   
   
  Link Results at 3:20:00 hrs:
  ------------------------------------
                       Flow     State
  Link                 m3/h          
  ------------------------------------
  1                   61.15      open
  2                   28.17      open
  3                  275.21      open
  4                   37.65      open
  5                   23.21      open
  6                  197.98      open
  7                   89.16      open
  8                  369.33      open
   
   
  Node Results at 3:25:00 hrs:
  ----------------------------------------------
                     Demand      Head  Pressure
  Node                 m3/h         m         m
  ----------------------------------------------
  1                   31.14    207.60     47.60
  2                   31.14    209.16     59.16
  3                   84.08    206.09     56.09
  4                   37.37    208.67     53.67
  5                   62.28    207.14     47.14
  6                  102.77    208.20     43.20
  7                 -348.78    210.00      0.00  Reservoir
   
   
  Link Results at 3:25:00 hrs:
  ------------------------------------
                       Flow     State
  Link                 m3/h          
  ------------------------------------
  1                   57.74      open
  2                   26.60      open
  3                  259.89      open
  4                   35.56      open
  5                   21.92      open
  6                  186.96      open
  7                   84.20      open
  8                  348.78      open
   
   
  Node Results at 3:30:00 hrs:
  ----------------------------------------------
                     Demand      Head  Pressure
  Node                 m3/h         m         m
  ----------------------------------------------
  1                   29.60    207.81     47.81
  2                   29.60    209.23     59.23
  3                   79.92    206.44     56.44
  4                   35.52    208.79     53.79
  5                   59.20    207.40     47.40
  6                   97.68    208.36     43.36
  7                 -331.51    210.00      0.00  Reservoir
   
   
  Link Results at 3:30:00 hrs:
  ------------------------------------
                       Flow     State
  Link                 m3/h          
  ------------------------------------
  1                   54.89      open
  2                   25.29      open
  3                  247.03      open
  4                   33.80      open
  5                   20.83      open
  6                  177.71      open
  7                   80.03      open
  8                  331.51      open
   
   
  Node Results at 3:35:00 hrs:
  ----------------------------------------------
                     Demand      Head  Pressure
  Node                 m3/h         m         m
  ----------------------------------------------
  1                   35.77    206.89     46.89
  2                   35.77    208.91     58.91
  3                   96.58    204.94     54.94
  4                   42.92    208.28     53.28
  5                   71.54    206.31     46.31
  6                  118.04    207.67     42.67
  7                 -400.62    210.00      0.00  Reservoir
   
   
  Link Results at 3:35:00 hrs:
  ------------------------------------
                       Flow     State
  Link                 m3/h          
  ------------------------------------
  1                   66.33      open
  2                   30.56      open
  3                  298.52      open
  4                   40.84      open
  5                   25.18      open
  6                  214.75      open
  7                   96.71      open
  8                  400.62      open
   
   
  Node Results at 3:40:00 hrs:
  ----------------------------------------------
                     Demand      Head  Pressure
  Node                 m3/h         m         m
  ----------------------------------------------
  1                   30.26    207.72     47.72
  2                   30.26    209.20     59.20
  3                   81.69    206.29     56.29
  4                   36.31    208.74     53.74
  5                   60.51    207.29     47.29
  6                   99.84    208.29     43.29
  7                 -338.87    210.00      0.00  Reservoir
   
   
  Link Results at 3:40:00 hrs:
  ------------------------------------
                       Flow     State
  Link                 m3/h          
  ------------------------------------
  1                   56.10      open
  2                   25.85      open
  3                  252.51      open
  4                   34.55      open
  5                   21.30      open
  6                  181.65      open
  7                   81.81      open
  8                  338.87      open
   
   
  Node Results at 3:45:00 hrs:
  ----------------------------------------------
                     Demand      Head  Pressure
  Node                 m3/h         m         m
  ----------------------------------------------
  1                   29.77    207.79     47.79
  2                   29.77    209.23     59.23
  3                   80.38    206.40     56.40
  4                   35.72    208.78     53.78
  5                   59.54    207.37     47.37
  6                   98.24    208.35     43.35
  7                 -333.41    210.00      0.00  Reservoir
   
   
  Link Results at 3:45:00 hrs:
  ------------------------------------
                       Flow     State
  Link                 m3/h          
  ------------------------------------
  1                   55.20      open
  2                   25.43      open
  3                  248.44      open
  4                   33.99      open
  5                   20.95      open
  6                  178.73      open
  7                   80.49      open
  8                  333.41      open
   
   
  Node Results at 3:50:00 hrs:
  ----------------------------------------------
                     Demand      Head  Pressure
  Node                 m3/h         m         m
  ----------------------------------------------
  1                   27.87    208.04     48.04
  2                   27.87    209.32     59.32
  3                   75.26    206.81     56.81
  4                   33.45    208.92     53.92
  5                   55.75    207.67     47.67
  6                   91.98    208.53     43.53
  7                 -312.17    210.00      0.00  Reservoir
   
   
  Link Results at 3:50:00 hrs:
  ------------------------------------
                       Flow     State
  Link                 m3/h          
  ------------------------------------
  1                   51.68      open
  2                   23.81      open
  3                  232.62      open
  4                   31.83      open
  5                   19.62      open
  6                  167.34      open
  7                   75.36      open
  8                  312.17      open
   
   
  Node Results at 3:55:00 hrs:
  ----------------------------------------------
                     Demand      Head  Pressure
  Node                 m3/h         m         m
  ----------------------------------------------
  1                   31.33    207.57     47.57
  2                   31.33    209.15     59.15
  3                   84.60    206.04     56.04
  4                   37.60    208.66     53.66
  5                   62.67    207.11     47.11
  6                  103.40    208.18     43.18
  7                 -350.94    210.00      0.00  Reservoir
   
   
  Link Results at 3:55:00 hrs:
  ------------------------------------
                       Flow     State
  Link                 m3/h          
  ------------------------------------
  1                   58.10      open
  2                   26.77      open
  3                  261.50      open
  4                   35.78      open
  5                   22.05      open
  6                  188.12      open
  7                   84.72      open
  8                  350.94      open
   
   
  Node Results at 4:00:00 hrs:
  ----------------------------------------------
                     Demand      Head  Pressure
  Node                 m3/h         m         m
  ----------------------------------------------
  1                   27.10    208.14     48.14
  2                   27.10    209.35     59.35
  3                   73.16    206.98     56.98
  4                   32.51    208.97     53.97
  5                   54.19    207.79     47.79
  6                   89.41    208.61     43.61
  7                 -303.47    210.00      0.00  Reservoir
   
   
  Link Results at 4:00:00 hrs:
  ------------------------------------
                       Flow     State
  Link                 m3/h          
  ------------------------------------
  1                   50.24      open
  2                   23.15      open
  3                  226.13      open
  4                   30.94      open
  5                   19.07      open
  6                  162.67      open
  7                   73.26      open
  8                  303.47      open
   
   
  Node Results at 4:05:00 hrs:
  ----------------------------------------------
                     Demand      Head  Pressure
  Node                 m3/h         m         m
  ----------------------------------------------
  1                   29.96    207.76     47.76
  2                   29.96    209.22     59.22
  3                   80.88    206.36     56.36
  4                   35.95    208.76     53.76
  5                   59.91    207.34     47.34
  6                   98.86    208.33     43.33
  7                 -335.52    210.00      0.00  Reservoir
   
   
  Link Results at 4:05:00 hrs:
  ------------------------------------
                       Flow     State
  Link                 m3/h          
  ------------------------------------
  1                   55.55      open
  2                   25.59      open
  3                  250.01      open
  4                   34.21      open
  5                   21.08      open
  6                  179.86      open
  7                   81.00      open
  8                  335.52      open
   
   
  Node Results at 4:10:00 hrs:
  ----------------------------------------------
                     Demand      Head  Pressure
  Node                 m3/h         m         m
  ----------------------------------------------
  1                   29.27    207.86     47.86
  2                   29.27    209.25     59.25
  3                   79.04    206.51     56.51
  4                   35.13    208.82     53.82
  5                   58.55    207.45     47.45
  6                   96.60    208.40     43.40
  7                 -327.86    210.00      0.00  Reservoir
   
   
  Link Results at 4:10:00 hrs:
  ------------------------------------
                       Flow     State
  Link                 m3/h          
  ------------------------------------
  1                   54.28      open
  2                   25.01      open
  3                  244.31      open
  4                   33.43      open
  5                   20.60      open
  6                  175.75      open
  7                   79.15      open
  8                  327.86      open
   
   
  Node Results at 4:15:00 hrs:
  ----------------------------------------------
                     Demand      Head  Pressure
  Node                 m3/h         m         m
  ----------------------------------------------
  1                   32.46    207.40     47.40
  2                   32.46    209.09     59.09
  3                   87.65    205.77     55.77
  4                   38.95    208.57     53.57
  5                   64.92    206.91     46.91
  6                  107.13    208.06     43.06
  7                 -363.58    210.00      0.00  Reservoir
   
   
  Link Results at 4:15:00 hrs:
  ------------------------------------
                       Flow     State
  Link                 m3/h          
  ------------------------------------
  1                   60.19      open
  2                   27.73      open
  3                  270.92      open
  4                   37.07      open
  5                   22.85      open
  6                  194.90      open
  7                   87.77      open
  8                  363.58      open
   
   
  Node Results at 4:20:00 hrs:
  ----------------------------------------------
                     Demand      Head  Pressure
  Node                 m3/h         m         m
  ----------------------------------------------
  1                   31.67    207.52     47.52
  2                   31.67    209.13     59.13
  3                   85.50    205.96     55.96
  4                   38.00    208.63     53.63
  5                   63.33    207.05     47.05
  6                  104.50    208.14     43.14
  7                 -354.67    210.00      0.00  Reservoir
   
   
  Link Results at 4:20:00 hrs:
  ------------------------------------
                       Flow     State
  Link                 m3/h          
  ------------------------------------
  1                   58.72      open
  2                   27.05      open
  3                  264.28      open
  4                   36.16      open
  5                   22.29      open
  6                  190.12      open
  7                   85.62      open
  8                  354.67      open
   
   
  Node Results at 4:25:00 hrs:
  ----------------------------------------------
                     Demand      Head  Pressure
  Node                 m3/h         m         m
  ----------------------------------------------
  1                   31.33    207.57     47.57
  2                   31.33    209.15     59.15
  3                   84.58    206.04     56.04
  4                   37.59    208.66     53.66
  5                   62.65    207.11     47.11
  6                  103.38    208.18     43.18
  7                 -350.87    210.00      0.00  Reservoir
   
   
  Link Results at 4:25:00 hrs:
  ------------------------------------
                       Flow     State
  Link                 m3/h          
  ------------------------------------
  1                   58.09      open
  2                   26.76      open
  3                  261.45      open
  4                   35.77      open
  5                   22.05      open
  6                  188.08      open
  7                   84.70      open
  8                  350.87      open
   
   
  Node Results at 4:30:00 hrs:
  ----------------------------------------------
                     Demand      Head  Pressure
  Node                 m3/h         m         m
  ----------------------------------------------
  1                   34.76    207.05     47.05
  2                   34.76    208.97     58.97
  3                   93.86    205.20     55.20
  4                   41.71    208.37     53.37
  5                   69.52    206.50     46.50
  6                  114.71    207.79     42.79
  7                 -389.33    210.00      0.00  Reservoir
   
   
  Link Results at 4:30:00 hrs:
  ------------------------------------
                       Flow     State
  Link                 m3/h          
  ------------------------------------
  1                   64.46      open
  2                   29.70      open
  3                  290.11      open
  4                   39.69      open
  5                   24.47      open
  6                  208.70      open
  7                   93.99      open
  8                  389.33      open
   
   
  Node Results at 4:35:00 hrs:
  ----------------------------------------------
                     Demand      Head  Pressure
  Node                 m3/h         m         m
  ----------------------------------------------
  1                   36.86    206.72     46.72
  2                   36.86    208.85     58.85
  3                   99.52    204.65     54.65
  4                   44.23    208.18     53.18
  5                   73.72    206.09     46.09
  6                  121.63    207.54     42.54
  7                 -412.81    210.00      0.00  Reservoir
   
   
  Link Results at 4:35:00 hrs:
  ------------------------------------
                       Flow     State
  Link                 m3/h          
  ------------------------------------
  1                   68.35      open
  2                   31.49      open
  3                  307.61      open
  4                   42.09      open
  5                   25.94      open
  6                  221.29      open
  7                   99.66      open
  8                  412.81      open
   
   
  Node Results at 4:40:00 hrs:
  ----------------------------------------------
                     Demand      Head  Pressure
  Node                 m3/h         m         m
  ----------------------------------------------
  1                   37.16    206.67     46.67
  2                   37.16    208.83     58.83
  3                  100.33    204.57     54.57
  4                   44.59    208.16     53.16
  5                   74.32    206.04     46.04
  6                  122.63    207.50     42.50
  7                 -416.19    210.00      0.00  Reservoir
   
   
  Link Results at 4:40:00 hrs:
  ------------------------------------
                       Flow     State
  Link                 m3/h          
  ------------------------------------
  1                   68.90      open
  2                   31.74      open
  3                  310.13      open
  4                   42.43      open
  5                   26.15      open
  6                  223.10      open
  7                  100.47      open
  8                  416.19      open
   
   
  Node Results at 4:45:00 hrs:
  ----------------------------------------------
                     Demand      Head  Pressure
  Node                 m3/h         m         m
  ----------------------------------------------
  1                   38.69    206.41     46.41
  2                   38.69    208.74     58.74
  3                  104.47    204.15     54.15
  4                   46.43    208.01     53.01
  5                   77.39    205.73     45.73
  6                  127.69    207.31     42.31
  7                 -433.38    210.00      0.00  Reservoir
   
   
  Link Results at 4:45:00 hrs:
  ------------------------------------
                       Flow     State
  Link                 m3/h          
  ------------------------------------
  1                   71.75      open
  2                   33.06      open
  3                  322.93      open
  4                   44.18      open
  5                   27.23      open
  6                  232.31      open
  7                  104.62      open
  8                  433.38      open
   
   
  Node Results at 4:50:00 hrs:
  ----------------------------------------------
                     Demand      Head  Pressure
  Node                 m3/h         m         m
  ----------------------------------------------
  1                   37.39    206.63     46.63
  2                   37.39    208.82     58.82
  3                  100.94    204.51     54.51
  4                   44.86    208.14     53.14
  5                   74.77    205.99     45.99
  6                  123.37    207.48     42.48
  7                 -418.72    210.00      0.00  Reservoir
   
   
  Link Results at 4:50:00 hrs:
  ------------------------------------
                       Flow     State
  Link                 m3/h          
  ------------------------------------
  1                   69.32      open
  2                   31.94      open
  3                  312.01      open
  4                   42.69      open
  5                   26.31      open
  6                  224.46      open
  7                  101.08      open
  8                  418.72      open
   
   
  Node Results at 4:55:00 hrs:
  ----------------------------------------------
                     Demand      Head  Pressure
  Node                 m3/h         m         m
  ----------------------------------------------
  1                   38.69    206.41     46.41
  2                   38.69    208.74     58.74
  3                  104.45    204.15     54.15
  4                   46.42    208.01     53.01
  5                   77.37    205.73     45.73
  6                  127.66    207.31     42.31
  7                 -433.28    210.00      0.00  Reservoir
   
   
  Link Results at 4:55:00 hrs:
  ------------------------------------
                       Flow     State
  Link                 m3/h          
  ------------------------------------
  1                   71.73      open
  2                   33.05      open
  3                  322.86      open
  4                   44.17      open
  5                   27.23      open
  6                  232.26      open
  7                  104.60      open
  8                  433.28      open
   
   
  Node Results at 5:00:00 hrs:
  ----------------------------------------------
                     Demand      Head  Pressure
  Node                 m3/h         m         m
  ----------------------------------------------
  1                   38.39    206.46     46.46
  2                   38.39    208.76     58.76
  3                  103.64    204.24     54.24
  4                   46.06    208.04     53.04
  5                   76.77    205.79     45.79
  6                  126.67    207.35     42.35
  7                 -429.93    210.00      0.00  Reservoir
   
   
  Link Results at 5:00:00 hrs:
  ------------------------------------
                       Flow     State
  Link                 m3/h          
  ------------------------------------
  1                   71.18      open
  2                   32.79      open
  3                  320.36      open
  4                   43.83      open
  5                   27.02      open
  6                  230.46      open
  7                  103.79      open
  8                  429.93      open
   
   
  Node Results at 5:05:00 hrs:
  ----------------------------------------------
                     Demand      Head  Pressure
  Node                 m3/h         m         m
  ----------------------------------------------
  1                   39.34    206.30     46.30
  2                   39.34    208.70     58.70
  3                  106.21    203.97     53.97
  4                   47.20    207.95     52.95
  5                   78.67    205.59     45.59
  6                  129.81    207.23     42.23
  7                 -440.56    210.00      0.00  Reservoir
   
   
  Link Results at 5:05:00 hrs:
  ------------------------------------
                       Flow     State
  Link                 m3/h          
  ------------------------------------
  1                   72.94      open
  2                   33.60      open
  3                  328.28      open
  4                   44.92      open
  5                   27.69      open
  6                  236.16      open
  7                  106.36      open
  8                  440.56      open
   
   
  Node Results at 5:10:00 hrs:
  ----------------------------------------------
                     Demand      Head  Pressure
  Node                 m3/h         m         m
  ----------------------------------------------
  1                   38.26    206.48     46.48
  2                   38.26    208.77     58.77
  3                  103.30    204.27     54.27
  4                   45.91    208.05     53.05
  5                   76.52    205.82     45.82
  6                  126.25    207.37     42.37
  7                 -428.50    210.00      0.00  Reservoir
   
   
  Link Results at 5:10:00 hrs:
  ------------------------------------
                       Flow     State
  Link                 m3/h          
  ------------------------------------
  1                   70.94      open
  2                   32.68      open
  3                  319.30      open
  4                   43.69      open
  5                   26.93      open
  6                  229.70      open
  7                  103.45      open
  8                  428.50      open
   
   
  Node Results at 5:15:00 hrs:
  ----------------------------------------------
                     Demand      Head  Pressure
  Node                 m3/h         m         m
  ----------------------------------------------
  1                   35.99    206.86     46.86
  2                   35.99    208.90     58.90
  3                   97.16    204.89     54.89
  4                   43.18    208.26     53.26
  5                   71.97    206.26     46.26
  6                  118.76    207.65     42.65
  7                 -403.05    210.00      0.00  Reservoir
   
   
  Link Results at 5:15:00 hrs:
  ------------------------------------
                       Flow     State
  Link                 m3/h          
  ------------------------------------
  1                   66.73      open
  2                   30.74      open
  3                  300.33      open
  4                   41.09      open
  5                   25.33      open
  6                  216.06      open
  7                   97.30      open
  8                  403.05      open
   
   
  Node Results at 5:20:00 hrs:
  ----------------------------------------------
                     Demand      Head  Pressure
  Node                 m3/h         m         m
  ----------------------------------------------
  1                   40.49    206.09     46.09
  2                   40.49    208.63     58.63
  3                  109.32    203.64     53.64
  4                   48.59    207.84     52.84
  5                   80.98    205.35     45.35
  6                  133.62    207.07     42.07
  7                 -453.48    210.00      0.00  Reservoir
   
   
  Link Results at 5:20:00 hrs:
  ------------------------------------
                       Flow     State
  Link                 m3/h          
  ------------------------------------
  1                   75.08      open
  2                   34.59      open
  3                  337.92      open
  4                   46.24      open
  5                   28.50      open
  6                  243.09      open
  7                  109.48      open
  8                  453.48      open
   
   
  Node Results at 5:25:00 hrs:
  ----------------------------------------------
                     Demand      Head  Pressure
  Node                 m3/h         m         m
  ----------------------------------------------
  1                   39.10    206.34     46.34
  2                   39.10    208.72     58.72
  3                  105.57    204.04     54.04
  4                   46.92    207.97     52.97
  5                   78.20    205.64     45.64
  6                  129.03    207.26     42.26
  7                 -437.93    210.00      0.00  Reservoir
   
   
  Link Results at 5:25:00 hrs:
  ------------------------------------
                       Flow     State
  Link                 m3/h          
  ------------------------------------
  1                   72.50      open
  2                   33.40      open
  3                  326.32      open
  4                   44.65      open
  5                   27.52      open
  6                  234.75      open
  7                  105.72      open
  8                  437.93      open
   
   
  Node Results at 5:30:00 hrs:
  ----------------------------------------------
                     Demand      Head  Pressure
  Node                 m3/h         m         m
  ----------------------------------------------
  1                   36.31    206.81     46.81
  2                   36.31    208.88     58.88
  3                   98.03    204.80     54.80
  4                   43.57    208.23     53.23
  5                   72.62    206.20     46.20
  6                  119.82    207.61     42.61
  7                 -406.65    210.00      0.00  Reservoir
   
   
  Link Results at 5:30:00 hrs:
  ------------------------------------
                       Flow     State
  Link                 m3/h          
  ------------------------------------
  1                   67.32      open
  2                   31.02      open
  3                  303.02      open
  4                   41.46      open
  5                   25.55      open
  6                  217.99      open
  7                   98.17      open
  8                  406.65      open
   
   
  Node Results at 5:35:00 hrs:
  ----------------------------------------------
                     Demand      Head  Pressure
  Node                 m3/h         m         m
  ----------------------------------------------
  1                   41.82    205.85     45.85
  2                   41.82    208.55     58.55
  3                  112.90    203.25     53.25
  4                   50.18    207.71     52.71
  5                   83.63    205.07     45.07
  6                  137.99    206.89     41.89
  7                 -468.34    210.00      0.00  Reservoir
   
   
  Link Results at 5:35:00 hrs:
  ------------------------------------
                       Flow     State
  Link                 m3/h          
  ------------------------------------
  1                   77.54      open
  2                   35.72      open
  3                  348.98      open
  4                   47.75      open
  5                   29.43      open
  6                  251.06      open
  7                  113.06      open
  8                  468.34      open
   
   
  Node Results at 5:40:00 hrs:
  ----------------------------------------------
                     Demand      Head  Pressure
  Node                 m3/h         m         m
  ----------------------------------------------
  1                   39.22    206.32     46.32
  2                   39.22    208.71     58.71
  3                  105.90    204.00     54.00
  4                   47.07    207.96     52.96
  5                   78.45    205.62     45.62
  6                  129.44    207.24     42.24
  7                 -439.31    210.00      0.00  Reservoir
   
   
  Link Results at 5:40:00 hrs:
  ------------------------------------
                       Flow     State
  Link                 m3/h          
  ------------------------------------
  1                   72.73      open
  2                   33.51      open
  3                  327.35      open
  4                   44.79      open
  5                   27.61      open
  6                  235.49      open
  7                  106.05      open
  8                  439.31      open
   
   
  Node Results at 5:45:00 hrs:
  ----------------------------------------------
                     Demand      Head  Pressure
  Node                 m3/h         m         m
  ----------------------------------------------
  1                   42.86    205.66     45.66
  2                   42.86    208.48     58.48
  3                  115.71    202.93     52.93
  4                   51.43    207.60     52.60
  5                   85.71    204.84     44.84
  6                  141.42    206.75     41.75
  7                 -479.98    210.00      0.00  Reservoir
   
   
  Link Results at 5:45:00 hrs:
  ------------------------------------
                       Flow     State
  Link                 m3/h          
  ------------------------------------
  1                   79.46      open
  2                   36.61      open
  3                  357.66      open
  4                   48.94      open
  5                   30.16      open
  6                  257.29      open
  7                  115.87      open
  8                  479.98      open
   
   
  Node Results at 5:50:00 hrs:
  ----------------------------------------------
                     Demand      Head  Pressure
  Node                 m3/h         m         m
  ----------------------------------------------
  1                   46.44    204.96     44.96
  2                   46.44    208.24     58.24
  3                  125.39    201.80     51.80
  4                   55.73    207.21     52.21
  5                   92.88    204.01     44.01
  6                  153.26    206.23     41.23
  7                 -520.14    210.00      0.00  Reservoir
   
   
  Link Results at 5:50:00 hrs:
  ------------------------------------
                       Flow     State
  Link                 m3/h          
  ------------------------------------
  1                   86.12      open
  2                   39.67      open
  3                  387.59      open
  4                   53.03      open
  5                   32.69      open
  6                  278.83      open
  7                  125.57      open
  8                  520.14      open
   
   
  Node Results at 5:55:00 hrs:
  ----------------------------------------------
                     Demand      Head  Pressure
  Node                 m3/h         m         m
  ----------------------------------------------
  1                   47.25    204.80     44.80
  2                   47.25    208.18     58.18
  3                  127.59    201.53     51.53
  4                   56.70    207.12     52.12
  5                   94.51    203.81     43.81
  6                  155.94    206.11     41.11
  7                 -529.24    210.00      0.00  Reservoir
   
   
  Link Results at 5:55:00 hrs:
  ------------------------------------
                       Flow     State
  Link                 m3/h          
  ------------------------------------
  1                   87.62      open
  2                   40.37      open
  3                  394.37      open
  4                   53.96      open
  5                   33.26      open
  6                  283.70      open
  7                  127.77      open
  8                  529.24      open
   
   
  Node Results at 6:00:00 hrs:
  ----------------------------------------------
                     Demand      Head  Pressure
  Node                 m3/h         m         m
  ----------------------------------------------
  1                   53.42    203.47     43.47
  2                   53.42    207.72     57.72
  3                  144.23    199.37     49.37
  4                   64.10    206.39     51.39
  5                  106.84    202.23     42.23
  6                  176.28    205.11     40.11
  7                 -598.28    210.00      0.00  Reservoir
   
   
  Link Results at 6:00:00 hrs:
  ------------------------------------
                       Flow     State
  Link                 m3/h          
  ------------------------------------
  1                   99.05      open
  2                   45.63      open
  3                  445.81      open
  4                   61.00      open
  5                   37.60      open
  6                  320.71      open
  7                  144.43      open
  8                  598.28      open
   
   
  Node Results at 6:05:00 hrs:
  ----------------------------------------------
                     Demand      Head  Pressure
  Node                 m3/h         m         m
  ----------------------------------------------
  1                   49.89    204.25     44.25
  2                   49.89    207.99     57.99
  3                  134.70    200.63     50.63
  4                   59.87    206.82     51.82
  5                   99.78    203.16     43.16
  6                  164.63    205.69     40.69
  7                 -558.74    210.00      0.00  Reservoir
   
   
  Link Results at 6:05:00 hrs:
  ------------------------------------
                       Flow     State
  Link                 m3/h          
  ------------------------------------
  1                   92.51      open
  2                   42.62      open
[...]
   
   
  Link Results at 22:30:00 hrs:
  ------------------------------------
                       Flow     State
  Link                 m3/h          
  ------------------------------------
  1                  241.12      open
  2                  111.08      open
  3                 1085.21      open
  4                  148.48      open
  5                   91.52      open
  6                  780.69      open
  7                  351.59      open
  8                 1456.36      open
   
   
  Node Results at 22:35:00 hrs:
  ----------------------------------------------
                     Demand      Head  Pressure
  Node                 m3/h         m         m
  ----------------------------------------------
  1                  105.15    187.12     27.12
  2                  105.15    201.99     51.99
  3                  283.90    172.74     22.74
  4                  126.18    197.35     42.35
  5                  210.30    182.78     22.78
  6                  346.99    192.87     27.87
  7                -1177.66    210.00      0.00  Reservoir
   
   
  Link Results at 22:35:00 hrs:
  ------------------------------------
                       Flow     State
  Link                 m3/h          
  ------------------------------------
  1                  194.97      open
  2                   89.83      open
  3                  877.54      open
  4                  120.07      open
  5                   74.01      open
  6                  631.29      open
  7                  284.30      open
  8                 1177.66      open
   
   
  Node Results at 22:40:00 hrs:
  ----------------------------------------------
                     Demand      Head  Pressure
  Node                 m3/h         m         m
  ----------------------------------------------
  1                  139.84    172.46     12.46
  2                  139.84    196.71     46.71
  3                  359.35    150.09      0.09
  4                  167.81    189.00     34.00
  5                  279.68    164.99      4.99
  6                  461.48    181.52     16.52
  7                -1548.00    210.00      0.00  Reservoir
   
   
  Link Results at 22:40:00 hrs:
  ------------------------------------
                       Flow     State
  Link                 m3/h          
  ------------------------------------
  1                  253.88      open
  2                  114.04      open
  3                 1154.28      open
  4                  153.76      open
  5                   91.55      open
  6                  832.71      open
  7                  371.24      open
  8                 1548.00      open
   
   
  Node Results at 22:45:00 hrs:
  ----------------------------------------------
                     Demand      Head  Pressure
  Node                 m3/h         m         m
  ----------------------------------------------
  1                  126.96    177.56     17.56
  2                  126.96    198.65     48.65
  3                  342.79    157.17      7.17
  4                  152.35    192.06     37.06
  5                  253.92    171.41     11.41
  6                  418.97    185.71     20.71
  7                -1421.96    210.00      0.00  Reservoir
   
   
  Link Results at 22:45:00 hrs:
  ------------------------------------
                       Flow     State
  Link                 m3/h          
  ------------------------------------
  1                  235.42      open
  2                  108.46      open
  3                 1059.58      open
  4                  144.98      open
  5                   89.36      open
  6                  762.25      open
  7                  343.28      open
  8                 1421.96      open
   
   
  Node Results at 22:50:00 hrs:
  ----------------------------------------------
                     Demand      Head  Pressure
  Node                 m3/h         m         m
  ----------------------------------------------
  1                  118.03    181.66     21.66
  2                  118.03    200.08     50.08
  3                  318.67    163.85     13.85
  4                  141.63    194.33     39.33
  5                  236.06    176.29     16.29
  6                  389.49    188.78     23.78
  7                -1321.91    210.00      0.00  Reservoir
   
   
  Link Results at 22:50:00 hrs:
  ------------------------------------
                       Flow     State
  Link                 m3/h          
  ------------------------------------
  1                  218.86      open
  2                  100.83      open
  3                  985.03      open
  4                  134.78      open
  5                   83.07      open
  6                  708.62      open
  7                  319.13      open
  8                 1321.91      open
   
   
  Node Results at 22:55:00 hrs:
  ----------------------------------------------
                     Demand      Head  Pressure
  Node                 m3/h         m         m
  ----------------------------------------------
  1                  118.64    181.39     21.39
  2                  118.64    199.99     49.99
  3                  320.32    163.41     13.41
  4                  142.36    194.18     39.18
  5                  237.27    175.97     15.97
  6                  391.50    188.58     23.58
  7                -1328.72    210.00      0.00  Reservoir
   
   
  Link Results at 22:55:00 hrs:
  ------------------------------------
                       Flow     State
  Link                 m3/h          
  ------------------------------------
  1                  219.98      open
  2                  101.35      open
  3                  990.10      open
  4                  135.47      open
  5                   83.50      open
  6                  712.27      open
  7                  320.77      open
  8                 1328.72      open
   
   
  Node Results at 23:00:00 hrs:
  ----------------------------------------------
                     Demand      Head  Pressure
  Node                 m3/h         m         m
  ----------------------------------------------
  1                  123.55    179.15     19.15
  2                  123.56    199.20     49.20
  3                  333.60    159.77      9.77
  4                  148.27    192.94     37.94
  5                  247.11    173.31     13.31
  6                  407.73    186.91     21.91
  7                -1383.82    210.00      0.00  Reservoir
   
   
  Link Results at 23:00:00 hrs:
  ------------------------------------
                       Flow     State
  Link                 m3/h          
  ------------------------------------
  1                  229.11      open
  2                  105.55      open
  3                 1031.16      open
  4                  141.09      open
  5                   86.96      open
  6                  741.80      open
  7                  334.07      open
  8                 1383.82      open
   
   
  Node Results at 23:05:00 hrs:
  ----------------------------------------------
                     Demand      Head  Pressure
  Node                 m3/h         m         m
  ----------------------------------------------
  1                  117.55    181.87     21.87
  2                  117.55    200.16     50.16
  3                  317.39    164.19     14.19
  4                  141.06    194.45     39.45
  5                  235.10    176.54     16.54
  6                  387.92    188.94     23.94
  7                -1316.58    210.00      0.00  Reservoir
   
   
  Link Results at 23:05:00 hrs:
  ------------------------------------
                       Flow     State
  Link                 m3/h          
  ------------------------------------
  1                  217.97      open
  2                  100.42      open
  3                  981.05      open
  4                  134.23      open
  5                   82.74      open
  6                  705.76      open
  7                  317.84      open
  8                 1316.58      open
   
   
  Node Results at 23:10:00 hrs:
  ----------------------------------------------
                     Demand      Head  Pressure
  Node                 m3/h         m         m
  ----------------------------------------------
  1                  102.40    188.21     28.21
  2                  102.40    202.38     52.38
  3                  276.48    174.52     24.52
  4                  122.88    197.95     42.95
  5                  204.80    184.09     24.09
  6                  337.92    193.69     28.69
  7                -1146.89    210.00      0.00  Reservoir
   
   
  Link Results at 23:10:00 hrs:
  ------------------------------------
                       Flow     State
  Link                 m3/h          
  ------------------------------------
  1                  189.88      open
  2                   87.48      open
  3                  854.61      open
  4                  116.93      open
  5                   72.07      open
  6                  614.80      open
  7                  276.87      open
  8                 1146.89      open
   
   
  Node Results at 23:15:00 hrs:
  ----------------------------------------------
                     Demand      Head  Pressure
  Node                 m3/h         m         m
  ----------------------------------------------
  1                  128.90    176.63     16.63
  2                  128.90    198.32     48.32
  3                  348.03    155.67      5.67
  4                  154.68    191.55     36.55
  5                  257.80    170.31     10.31
  6                  425.37    185.02     20.02
  7                -1443.68    210.00      0.00  Reservoir
   
   
  Link Results at 23:15:00 hrs:
  ------------------------------------
                       Flow     State
  Link                 m3/h          
  ------------------------------------
  1                  239.02      open
  2                  110.12      open
  3                 1075.76      open
  4                  147.19      open
  5                   90.72      open
  6                  773.89      open
  7                  348.52      open
  8                 1443.68      open
   
   
  Node Results at 23:20:00 hrs:
  ----------------------------------------------
                     Demand      Head  Pressure
  Node                 m3/h         m         m
  ----------------------------------------------
  1                  111.88    184.33     24.33
  2                  111.88    201.02     51.02
  3                  302.07    168.20     18.20
  4                  134.25    195.81     40.81
  5                  223.75    179.47     19.47
  6                  369.19    190.79     25.79
  7                -1253.02    210.00      0.00  Reservoir
   
   
  Link Results at 23:20:00 hrs:
  ------------------------------------
                       Flow     State
  Link                 m3/h          
  ------------------------------------
  1                  207.45      open
  2                   95.57      open
  3                  933.69      open
  4                  127.75      open
  5                   78.74      open
  6                  671.69      open
  7                  302.50      open
  8                 1253.02      open
   
   
  Node Results at 23:25:00 hrs:
  ----------------------------------------------
                     Demand      Head  Pressure
  Node                 m3/h         m         m
  ----------------------------------------------
  1                  117.15    182.04     22.04
  2                  117.15    200.22     50.22
  3                  316.32    164.48     14.48
  4                  140.59    194.54     39.54
  5                  234.31    176.75     16.75
  6                  386.61    189.07     24.07
  7                -1312.13    210.00      0.00  Reservoir
   
   
  Link Results at 23:25:00 hrs:
  ------------------------------------
                       Flow     State
  Link                 m3/h          
  ------------------------------------
  1                  217.24      open
  2                  100.08      open
  3                  977.74      open
  4                  133.78      open
  5                   82.46      open
  6                  703.38      open
  7                  316.77      open
  8                 1312.13      open
   
   
  Node Results at 23:30:00 hrs:
  ----------------------------------------------
                     Demand      Head  Pressure
  Node                 m3/h         m         m
  ----------------------------------------------
  1                  103.52    187.77     27.77
  2                  103.52    202.22     52.22
  3                  279.51    173.80     23.80
  4                  124.23    197.71     42.71
  5                  207.05    183.56     23.56
  6                  341.63    193.36     28.36
  7                -1159.46    210.00      0.00  Reservoir
   
   
  Link Results at 23:30:00 hrs:
  ------------------------------------
                       Flow     State
  Link                 m3/h          
  ------------------------------------
  1                  191.96      open
  2                   88.44      open
  3                  863.98      open
  4                  118.21      open
  5                   72.86      open
  6                  621.54      open
  7                  279.91      open
  8                 1159.46      open
   
   
  Node Results at 23:35:00 hrs:
  ----------------------------------------------
                     Demand      Head  Pressure
  Node                 m3/h         m         m
  ----------------------------------------------
  1                  115.17    182.91     22.91
  2                  115.17    200.52     50.52
  3                  310.97    165.89     15.89
  4                  138.21    195.02     40.02
  5                  230.35    177.78     17.78
  6                  380.07    189.72     24.72
  7                -1289.94    210.00      0.00  Reservoir
   
   
  Link Results at 23:35:00 hrs:
  ------------------------------------
                       Flow     State
  Link                 m3/h          
  ------------------------------------
  1                  213.56      open
  2                   98.39      open
  3                  961.20      open
  4                  131.52      open
  5                   81.06      open
  6                  691.48      open
  7                  311.41      open
  8                 1289.94      open
   
   
  Node Results at 23:40:00 hrs:
  ----------------------------------------------
                     Demand      Head  Pressure
  Node                 m3/h         m         m
  ----------------------------------------------
  1                  104.49    187.38     27.38
  2                  104.49    202.09     52.09
  3                  282.12    173.17     23.17
  4                  125.39    197.50     42.50
  5                  208.98    183.10     23.10
  6                  344.81    193.07     28.07
  7                -1170.28    210.00      0.00  Reservoir
   
   
  Link Results at 23:40:00 hrs:
  ------------------------------------
                       Flow     State
  Link                 m3/h          
  ------------------------------------
  1                  193.75      open
  2                   89.26      open
  3                  872.04      open
  4                  119.32      open
  5                   73.54      open
  6                  627.33      open
  7                  282.52      open
  8                 1170.28      open
   
   
  Node Results at 23:45:00 hrs:
  ----------------------------------------------
                     Demand      Head  Pressure
  Node                 m3/h         m         m
  ----------------------------------------------
  1                  103.47    187.79     27.79
  2                  103.47    202.23     52.23
  3                  279.36    173.84     23.84
  4                  124.16    197.72     42.72
  5                  206.93    183.58     23.58
  6                  341.44    193.37     28.37
  7                -1158.82    210.00      0.00  Reservoir
   
   
  Link Results at 23:45:00 hrs:
  ------------------------------------
                       Flow     State
  Link                 m3/h          
  ------------------------------------
  1                  191.86      open
  2                   88.39      open
  3                  863.50      open
  4                  118.15      open
  5                   72.82      open
  6                  621.19      open
  7                  279.75      open
  8                 1158.82      open
   
   
  Node Results at 23:50:00 hrs:
  ----------------------------------------------
                     Demand      Head  Pressure
  Node                 m3/h         m         m
  ----------------------------------------------
  1                   90.67    192.61     32.61
  2                   90.67    203.91     53.91
  3                  244.80    181.68     31.68
  4                  108.80    200.39     45.39
  5                  181.33    189.31     29.31
  6                  299.20    196.98     31.98
  7                -1015.47    210.00      0.00  Reservoir
   
   
  Link Results at 23:50:00 hrs:
  ------------------------------------
                       Flow     State
  Link                 m3/h          
  ------------------------------------
  1                  168.12      open
  2                   77.46      open
  3                  756.68      open
  4                  103.53      open
  5                   63.81      open
  6                  544.35      open
  7                  245.15      open
  8                 1015.47      open
   
   
  Node Results at 23:55:00 hrs:
  ----------------------------------------------
                     Demand      Head  Pressure
  Node                 m3/h         m         m
  ----------------------------------------------
  1                  100.25    189.05     29.05
  2                  100.25    202.67     52.67
  3                  270.69    175.89     25.89
  4                  120.31    198.42     43.42
  5                  200.51    185.08     25.08
  6                  330.84    194.32     29.32
  7                -1122.85    210.00      0.00  Reservoir
   
   
  Link Results at 23:55:00 hrs:
  ------------------------------------
                       Flow     State
  Link                 m3/h          
  ------------------------------------
  1                  185.90      open
  2                   85.64      open
  3                  836.69      open
  4                  114.48      open
  5                   70.56      open
  6                  601.91      open
  7                  271.07      open
  8                 1122.85      open
   
   
  Node Results at 24:00:00 hrs:
  ----------------------------------------------
                     Demand      Head  Pressure
  Node                 m3/h         m         m
  ----------------------------------------------
  1                   99.53    189.33     29.33
  2                   99.53    202.77     52.77
  3                  268.72    176.34     26.34
  4                  119.43    198.57     43.57
  5                  199.05    185.42     25.42
  6                  328.44    194.53     29.53
  7                -1114.69    210.00      0.00  Reservoir
   
   
  Link Results at 24:00:00 hrs:
  ------------------------------------
                       Flow     State
  Link                 m3/h          
  ------------------------------------
  1                  184.55      open
  2                   85.02      open
  3                  830.62      open
  4                  113.65      open
  5                   70.05      open
  6                  597.54      open
  7                  269.10      open
  8                 1114.69      open
   
  Analysis ended Tue Mar  7 12:01:37 2023
