  Page 1                                    Tue Mar  7 12:01:36 2023

  ******************************************************************
  *                           E P A N E T                          *
  *                   Hydraulic and Water Quality                  *
  *                   Analysis for Pipe Networks                   *
  *                         Version 2.2                            *
  ******************************************************************
  
  Analysis begun Tue Mar  7 12:01:36 2023

   
  Node Results at 0:00:00 hrs:
  ----------------------------------------------
                     Demand      Head  Pressure
  Node                 m3/h         m         m
  ----------------------------------------------
  1                  102.70    188.09     28.09
  2                  102.70    202.33     52.33
  3                  277.29    174.33     24.33
  4                  123.24    197.89     42.89
  5                  205.40    183.94     23.94
  6                  338.91    193.60     28.60
  7                -1150.25    210.00      0.00  Reservoir
   
   
  Link Results at 0:00:00 hrs:
  ------------------------------------
                       Flow     State
  Link                 m3/h          
  ------------------------------------
  1                  190.44      open
  2                   87.74      open
  3                  857.12      open
  4                  117.27      open
  5                   72.28      open
  6                  616.60      open
  7                  277.69      open
  8                 1150.25      open
   
   
  Node Results at 0:05:00 hrs:
  ----------------------------------------------
                     Demand      Head  Pressure
  Node                 m3/h         m         m
  ----------------------------------------------
  1                   88.95    193.22     33.22
  2                   88.95    204.13     54.13
  3                  240.15    182.67     32.67
  4                  106.74    200.72     45.72
  5                  177.89    190.04     30.04
  6                  293.52    197.44     32.44
  7                 -996.19    210.00      0.00  Reservoir
   
   
  Link Results at 0:05:00 hrs:
  ------------------------------------
                       Flow     State
  Link                 m3/h          
  ------------------------------------
  1                  164.93      open
  2                   75.98      open
  3                  742.32      open
  4                  101.57      open
  5                   62.60      open
  6                  534.02      open
  7                  240.49      open
  8                  996.19      open
   
   
  Node Results at 0:10:00 hrs:
  ----------------------------------------------
                     Demand      Head  Pressure
  Node                 m3/h         m         m
  ----------------------------------------------
  1                   89.13    193.15     33.15
  2                   89.13    204.10     54.10
  3                  240.64    182.57     32.57
  4                  106.95    200.69     45.69
  5                  178.26    189.96     29.96
  6                  294.12    197.39     32.39
  7                 -998.23    210.00      0.00  Reservoir
   
   
  Link Results at 0:10:00 hrs:
  ------------------------------------
                       Flow     State
  Link                 m3/h          
  ------------------------------------
  1                  165.27      open
  2                   76.14      open
  3                  743.84      open
  4                  101.77      open
  5                   62.73      open
  6                  535.11      open
  7                  240.99      open
  8                  998.23      open
   
   
  Node Results at 0:15:00 hrs:
  ----------------------------------------------
                     Demand      Head  Pressure
  Node                 m3/h         m         m
  ----------------------------------------------
  1                   93.63    191.54     31.54
  2                   93.63    203.54     53.54
  3                  252.79    179.95     29.95
  4                  112.35    199.80     44.80
  5                  187.25    188.05     28.05
  6                  308.97    196.18     31.18
  7                -1048.62    210.00      0.00  Reservoir
   
   
  Link Results at 0:15:00 hrs:
  ------------------------------------
                       Flow     State
  Link                 m3/h          
  ------------------------------------
  1                  173.61      open
  2                   79.98      open
  3                  781.39      open
  4                  106.91      open
  5                   65.90      open
  6                  562.12      open
  7                  253.15      open
  8                 1048.62      open
   
   
  Node Results at 0:20:00 hrs:
  ----------------------------------------------
                     Demand      Head  Pressure
  Node                 m3/h         m         m
  ----------------------------------------------
  1                   87.80    193.61     33.61
  2                   87.80    204.27     54.27
  3                  237.06    183.32     33.32
  4                  105.36    200.94     45.94
  5                  175.60    190.51     30.51
  6                  289.74    197.73     32.73
  7                 -983.37    210.00      0.00  Reservoir
   
   
  Link Results at 0:20:00 hrs:
  ------------------------------------
                       Flow     State
  Link                 m3/h          
  ------------------------------------
  1                  162.81      open
  2                   75.01      open
  3                  732.76      open
  4                  100.26      open
  5                   61.80      open
  6                  527.14      open
  7                  237.40      open
  8                  983.37      open
   
   
  Node Results at 0:25:00 hrs:
  ----------------------------------------------
                     Demand      Head  Pressure
  Node                 m3/h         m         m
  ----------------------------------------------
  1                   67.87    199.83     39.83
  2                   67.87    206.44     56.44
  3                  183.25    193.44     43.44
  4                   81.44    204.38     49.38
  5                  135.74    197.90     37.90
  6                  223.97    202.39     37.39
  7                 -760.14    210.00      0.00  Reservoir
   
   
  Link Results at 0:25:00 hrs:
  ------------------------------------
                       Flow     State
  Link                 m3/h          
  ------------------------------------
  1                  125.85      open
  2                   57.98      open
  3                  566.42      open
  4                   77.50      open
  5                   47.77      open
  6                  407.48      open
  7                  183.51      open
  8                  760.14      open
   
   
  Node Results at 0:30:00 hrs:
  ----------------------------------------------
                     Demand      Head  Pressure
  Node                 m3/h         m         m
  ----------------------------------------------
  1                   76.50    197.31     37.31
  2                   76.50    205.56     55.56
  3                  206.54    189.33     39.33
  4                   91.80    202.98     47.98
  5                  152.99    194.90     34.90
  6                  252.44    200.50     35.50
  7                 -856.77    210.00      0.00  Reservoir
   
   
  Link Results at 0:30:00 hrs:
  ------------------------------------
                       Flow     State
  Link                 m3/h          
  ------------------------------------
  1                  141.85      open
  2                   65.35      open
  3                  638.42      open
  4                   87.35      open
  5                   53.84      open
  6                  459.27      open
  7                  206.83      open
  8                  856.77      open
   
   
  Node Results at 0:35:00 hrs:
  ----------------------------------------------
                     Demand      Head  Pressure
  Node                 m3/h         m         m
  ----------------------------------------------
  1                   67.95    199.81     39.81
  2                   67.95    206.43     56.43
  3                  183.45    193.40     43.40
  4                   81.53    204.36     49.36
  5                  135.89    197.88     37.88
  6                  224.22    202.37     37.37
  7                 -760.98    210.00      0.00  Reservoir
   
   
  Link Results at 0:35:00 hrs:
  ------------------------------------
                       Flow     State
  Link                 m3/h          
  ------------------------------------
  1                  125.99      open
  2                   58.04      open
  3                  567.05      open
  4                   77.59      open
  5                   47.82      open
  6                  407.93      open
  7                  183.71      open
  8                  760.98      open
   
   
  Node Results at 0:40:00 hrs:
  ----------------------------------------------
                     Demand      Head  Pressure
  Node                 m3/h         m         m
  ----------------------------------------------
  1                   66.12    200.31     40.31
  2                   66.12    206.61     56.61
  3                  178.51    194.22     44.22
  4                   79.34    204.64     49.64
  5                  132.23    198.47     38.47
  6                  218.18    202.75     37.75
  7                 -740.50    210.00      0.00  Reservoir
   
   
  Link Results at 0:40:00 hrs:
  ------------------------------------
                       Flow     State
  Link                 m3/h          
  ------------------------------------
  1                  122.60      open
  2                   56.48      open
  3                  551.78      open
  4                   75.50      open
  5                   46.53      open
  6                  396.95      open
  7                  178.77      open
  8                  740.50      open
   
   
  Node Results at 0:45:00 hrs:
  ----------------------------------------------
                     Demand      Head  Pressure
  Node                 m3/h         m         m
  ----------------------------------------------
  1                   66.87    200.10     40.10
  2                   66.87    206.54     56.54
  3                  180.56    193.88     43.88
  4                   80.25    204.53     49.53
  5                  133.75    198.23     38.23
  6                  220.68    202.59     37.59
  7                 -748.97    210.00      0.00  Reservoir
   
   
  Link Results at 0:45:00 hrs:
  ------------------------------------
                       Flow     State
  Link                 m3/h          
  ------------------------------------
  1                  124.00      open
  2                   57.13      open
  3                  558.10      open
  4                   76.36      open
  5                   47.07      open
  6                  401.49      open
  7                  180.81      open
  8                  748.97      open
   
   
  Node Results at 0:50:00 hrs:
  ----------------------------------------------
                     Demand      Head  Pressure
  Node                 m3/h         m         m
  ----------------------------------------------
  1                   63.73    200.95     40.95
  2                   63.73    206.83     56.83
  3                  172.07    195.26     45.26
  4                   76.48    205.00     50.00
  5                  127.46    199.23     39.23
  6                  210.31    203.22     38.22
  7                 -713.77    210.00      0.00  Reservoir
   
   
  Link Results at 0:50:00 hrs:
  ------------------------------------
                       Flow     State
  Link                 m3/h          
  ------------------------------------
  1                  118.17      open
  2                   54.44      open
  3                  531.87      open
  4                   72.77      open
  5                   44.85      open
  6                  382.62      open
  7                  172.31      open
  8                  713.77      open
   
   
  Node Results at 0:55:00 hrs:
  ----------------------------------------------
                     Demand      Head  Pressure
  Node                 m3/h         m         m
  ----------------------------------------------
  1                   68.57    199.63     39.63
  2                   68.57    206.37     56.37
  3                  185.14    193.12     43.12
  4                   82.29    204.27     49.27
  5                  137.14    197.67     37.67
  6                  226.29    202.24     37.24
  7                 -768.01    210.00      0.00  Reservoir
   
   
  Link Results at 0:55:00 hrs:
  ------------------------------------
                       Flow     State
  Link                 m3/h          
  ------------------------------------
  1                  127.15      open
  2                   58.58      open
  3                  572.28      open
  4                   78.30      open
  5                   48.26      open
  6                  411.69      open
  7                  185.41      open
  8                  768.01      open
   
   
  Node Results at 1:00:00 hrs:
  ----------------------------------------------
                     Demand      Head  Pressure
  Node                 m3/h         m         m
  ----------------------------------------------
  1                   63.65    200.97     40.97
  2                   63.65    206.84     56.84
  3                  171.86    195.29     45.29
  4                   76.38    205.01     50.01
  5                  127.31    199.26     39.26
  6                  210.06    203.24     38.24
  7                 -712.91    210.00      0.00  Reservoir
   
   
  Link Results at 1:00:00 hrs:
  ------------------------------------
                       Flow     State
  Link                 m3/h          
  ------------------------------------
  1                  118.03      open
  2                   54.38      open
  3                  531.23      open
  4                   72.69      open
  5                   44.80      open
  6                  382.16      open
  7                  172.11      open
  8                  712.91      open
   
   
  Node Results at 1:05:00 hrs:
  ----------------------------------------------
                     Demand      Head  Pressure
  Node                 m3/h         m         m
  ----------------------------------------------
  1                   59.28    202.08     42.08
  2                   59.28    207.23     57.23
  3                  160.07    197.11     47.11
  4                   71.14    205.62     50.62
  5                  118.57    200.58     40.58
  6                  195.64    204.07     39.07
  7                 -663.99    210.00      0.00  Reservoir
   
   
  Link Results at 1:05:00 hrs:
  ------------------------------------
                       Flow     State
  Link                 m3/h          
  ------------------------------------
  1                  109.93      open
  2                   50.65      open
  3                  494.77      open
  4                   67.70      open
  5                   41.73      open
  6                  355.94      open
  7                  160.30      open
  8                  663.99      open
   
   
  Node Results at 1:10:00 hrs:
  ----------------------------------------------
                     Demand      Head  Pressure
  Node                 m3/h         m         m
  ----------------------------------------------
  1                   59.60    202.00     42.00
  2                   59.60    207.20     57.20
  3                  160.91    196.98     46.98
  4                   71.52    205.58     50.58
  5                  119.19    200.49     40.49
  6                  196.67    204.01     39.01
  7                 -667.48    210.00      0.00  Reservoir
   
   
  Link Results at 1:10:00 hrs:
  ------------------------------------
                       Flow     State
  Link                 m3/h          
  ------------------------------------
  1                  110.51      open
  2                   50.91      open
  3                  497.37      open
  4                   68.05      open
  5                   41.95      open
  6                  357.80      open
  7                  161.14      open
  8                  667.48      open
   
   
  Node Results at 1:15:00 hrs:
  ----------------------------------------------
                     Demand      Head  Pressure
  Node                 m3/h         m         m
  ----------------------------------------------
  1                   58.01    202.39     42.39
  2                   58.01    207.34     57.34
  3                  156.63    197.61     47.61
  4                   69.62    205.79     50.79
  5                  116.03    200.95     40.95
  6                  191.44    204.31     39.31
  7                 -649.74    210.00      0.00  Reservoir
   
   
  Link Results at 1:15:00 hrs:
  ------------------------------------
                       Flow     State
  Link                 m3/h          
  ------------------------------------
  1                  107.57      open
  2                   49.56      open
  3                  484.16      open
  4                   66.24      open
  5                   40.83      open
  6                  348.30      open
  7                  156.86      open
  8                  649.74      open
   
   
  Node Results at 1:20:00 hrs:
  ----------------------------------------------
                     Demand      Head  Pressure
  Node                 m3/h         m         m
  ----------------------------------------------
  1                   62.20    201.35     41.35
  2                   62.20    206.97     56.97
  3                  167.93    195.91     45.91
  4                   74.64    205.22     50.22
  5                  124.39    199.71     39.71
  6                  205.25    203.52     38.52
  7                 -696.60    210.00      0.00  Reservoir
   
   
  Link Results at 1:20:00 hrs:
  ------------------------------------
                       Flow     State
  Link                 m3/h          
  ------------------------------------
  1                  115.33      open
  2                   53.13      open
  3                  519.07      open
  4                   71.02      open
  5                   43.78      open
  6                  373.42      open
  7                  168.17      open
  8                  696.60      open
   
   
  Node Results at 1:25:00 hrs:
  ----------------------------------------------
                     Demand      Head  Pressure
  Node                 m3/h         m         m
  ----------------------------------------------
  1                   53.80    203.39     43.39
  2                   53.80    207.69     57.69
  3                  145.25    199.23     49.23
  4                   64.56    206.34     51.34
  5                  107.59    202.13     42.13
  6                  177.53    205.05     40.05
  7                 -602.53    210.00      0.00  Reservoir
   
   
  Link Results at 1:25:00 hrs:
  ------------------------------------
                       Flow     State
  Link                 m3/h          
  ------------------------------------
  1                   99.75      open
  2                   45.96      open
  3                  448.97      open
  4                   61.43      open
  5                   37.86      open
  6                  322.99      open
  7                  145.46      open
  8                  602.53      open
   
   
  Node Results at 1:30:00 hrs:
  ----------------------------------------------
                     Demand      Head  Pressure
  Node                 m3/h         m         m
  ----------------------------------------------
  1                   55.26    203.05     43.05
  2                   55.26    207.57     57.57
  3                  149.19    198.68     48.68
  4                   66.31    206.16     51.16
  5                  110.51    201.73     41.73
  6                  182.35    204.80     39.80
  7                 -618.88    210.00      0.00  Reservoir
   
   
  Link Results at 1:30:00 hrs:
  ------------------------------------
                       Flow     State
  Link                 m3/h          
  ------------------------------------
  1                  102.46      open
  2                   47.20      open
  3                  461.16      open
  4                   63.10      open
  5                   38.89      open
  6                  331.75      open
  7                  149.41      open
  8                  618.88      open
   
   
  Node Results at 1:35:00 hrs:
  ----------------------------------------------
                     Demand      Head  Pressure
  Node                 m3/h         m         m
  ----------------------------------------------
  1                   49.55    204.32     44.32
  2                   49.55    208.01     58.01
  3                  133.77    200.75     50.75
  4                   59.46    206.86     51.86
  5                   99.09    203.25     43.25
  6                  163.50    205.75     40.75
  7                 -554.92    210.00      0.00  Reservoir
   
   
  Link Results at 1:35:00 hrs:
  ------------------------------------
                       Flow     State
  Link                 m3/h          
  ------------------------------------
  1                   91.87      open
  2                   42.33      open
  3                  413.50      open
  4                   56.58      open
  5                   34.87      open
  6                  297.47      open
  7                  133.96      open
  8                  554.92      open
   
   
  Node Results at 1:40:00 hrs:
  ----------------------------------------------
                     Demand      Head  Pressure
  Node                 m3/h         m         m
  ----------------------------------------------
  1                   41.78    205.86     45.86
  2                   41.78    208.55     58.55
  3                  112.80    203.26     53.26
  4                   50.13    207.71     52.71
  5                   83.56    205.07     45.07
  6                  137.87    206.90     41.90
  7                 -467.91    210.00      0.00  Reservoir
   
   
  Link Results at 1:40:00 hrs:
  ------------------------------------
                       Flow     State
  Link                 m3/h          
  ------------------------------------
  1                   77.47      open
  2                   35.69      open
  3                  348.67      open
  4                   47.71      open
  5                   29.40      open
  6                  250.83      open
  7                  112.96      open
  8                  467.91      open
   
   
  Node Results at 1:45:00 hrs:
  ----------------------------------------------
                     Demand      Head  Pressure
  Node                 m3/h         m         m
  ----------------------------------------------
  1                   54.57    203.21     43.21
  2                   54.57    207.62     57.62
  3                  147.33    198.94     48.94
  4                   65.48    206.25     51.25
  5                  109.14    201.92     41.92
  6                  180.07    204.92     39.92
  7                 -611.16    210.00      0.00  Reservoir
   
   
  Link Results at 1:45:00 hrs:
  ------------------------------------
                       Flow     State
  Link                 m3/h          
  ------------------------------------
  1                  101.18      open
  2                   46.62      open
  3                  455.41      open
  4                   62.31      open
  5                   38.41      open
  6                  327.61      open
  7                  147.54      open
  8                  611.16      open
   
   
  Node Results at 1:50:00 hrs:
  ----------------------------------------------
                     Demand      Head  Pressure
  Node                 m3/h         m         m
  ----------------------------------------------
  1                   54.78    203.16     43.16
  2                   54.78    207.61     57.61
  3                  147.90    198.86     48.86
  4                   65.73    206.22     51.22
  5                  109.55    201.87     41.87
  6                  180.76    204.88     39.88
  7                 -613.49    210.00      0.00  Reservoir
   
   
  Link Results at 1:50:00 hrs:
  ------------------------------------
                       Flow     State
  Link                 m3/h          
  ------------------------------------
  1                  101.57      open
  2                   46.79      open
  3                  457.15      open
  4                   62.55      open
  5                   38.55      open
  6                  328.87      open
  7                  148.11      open
  8                  613.49      open
   
   
  Node Results at 1:55:00 hrs:
  ----------------------------------------------
                     Demand      Head  Pressure
  Node                 m3/h         m         m
  ----------------------------------------------
  1                   47.61    204.72     44.72
  2                   47.61    208.15     58.15
  3                  128.56    201.41     51.41
  4                   57.14    207.08     52.08
  5                   95.23    203.72     43.72
  6                  157.12    206.05     41.05
  7                 -533.27    210.00      0.00  Reservoir
   
   
  Link Results at 1:55:00 hrs:
  ------------------------------------
                       Flow     State
  Link                 m3/h          
  ------------------------------------
  1                   88.29      open
  2                   40.68      open
  3                  397.37      open
  4                   54.37      open
  5                   33.51      open
  6                  285.86      open
  7                  128.74      open
  8                  533.27      open
   
   
  Node Results at 2:00:00 hrs:
  ----------------------------------------------
                     Demand      Head  Pressure
  Node                 m3/h         m         m
  ----------------------------------------------
  1                   59.08    202.13     42.13
  2                   59.08    207.25     57.25
  3                  159.51    197.19     47.19
  4                   70.89    205.65     50.65
  5                  118.16    200.64     40.64
  6                  194.96    204.11     39.11
  7                 -661.69    210.00      0.00  Reservoir
   
   
  Link Results at 2:00:00 hrs:
  ------------------------------------
                       Flow     State
  Link                 m3/h          
  ------------------------------------
  1                  109.55      open
  2                   50.47      open
  3                  493.06      open
  4                   67.46      open
  5                   41.58      open
  6                  354.70      open
  7                  159.74      open
  8                  661.69      open
   
   
  Node Results at 2:05:00 hrs:
  ----------------------------------------------
                     Demand      Head  Pressure
  Node                 m3/h         m         m
  ----------------------------------------------
  1                   43.62    205.51     45.51
  2                   43.62    208.43     58.43
  3                  117.78    202.70     52.70
  4                   52.35    207.52     52.52
  5                   87.24    204.66     44.66
  6                  143.95    206.64     41.64
  7                 -488.56    210.00      0.00  Reservoir
   
   
  Link Results at 2:05:00 hrs:
  ------------------------------------
                       Flow     State
  Link                 m3/h          
  ------------------------------------
  1                   80.89      open
  2                   37.26      open
  3                  364.06      open
  4                   49.81      open
  5                   30.70      open
  6                  261.90      open
  7                  117.95      open
  8                  488.56      open
   
   
  Node Results at 2:10:00 hrs:
  ----------------------------------------------
                     Demand      Head  Pressure
  Node                 m3/h         m         m
  ----------------------------------------------
  1                   48.89    204.46     44.46
  2                   48.89    208.06     58.06
  3                  132.00    200.98     50.98
  4                   58.66    206.94     51.94
  5                   97.77    203.41     43.41
  6                  161.33    205.85     40.85
  7                 -547.54    210.00      0.00  Reservoir
   
   
  Link Results at 2:10:00 hrs:
  ------------------------------------
                       Flow     State
  Link                 m3/h          
  ------------------------------------
  1                   90.65      open
  2                   41.76      open
  3                  408.00      open
  4                   55.82      open
  5                   34.41      open
  6                  293.51      open
  7                  132.18      open
  8                  547.54      open
   
   
  Node Results at 2:15:00 hrs:
  ----------------------------------------------
                     Demand      Head  Pressure
  Node                 m3/h         m         m
  ----------------------------------------------
  1                   47.31    204.79     44.79
  2                   47.31    208.18     58.18
  3                  127.73    201.51     51.51
  4                   56.77    207.12     52.12
  5                   94.61    203.80     43.80
  6                  156.11    206.10     41.10
  7                 -529.84    210.00      0.00  Reservoir
   
   
  Link Results at 2:15:00 hrs:
  ------------------------------------
                       Flow     State
  Link                 m3/h          
  ------------------------------------
  1                   87.72      open
  2                   40.41      open
  3                  394.81      open
  4                   54.02      open
  5                   33.30      open
  6                  284.02      open
  7                  127.91      open
  8                  529.84      open
   
   
  Node Results at 2:20:00 hrs:
  ----------------------------------------------
                     Demand      Head  Pressure
  Node                 m3/h         m         m
  ----------------------------------------------
  1                   53.12    203.54     43.54
  2                   53.12    207.74     57.74
  3                  143.41    199.48     49.48
  4                   63.74    206.43     51.43
  5                  106.23    202.32     42.32
  6                  175.28    205.16     40.16
  7                 -594.89    210.00      0.00  Reservoir
   
   
  Link Results at 2:20:00 hrs:
  ------------------------------------
                       Flow     State
  Link                 m3/h          
  ------------------------------------
  1                   98.49      open
  2                   45.38      open
  3                  443.29      open
  4                   60.65      open
  5                   37.38      open
  6                  318.89      open
  7                  143.61      open
  8                  594.89      open
   
   
  Node Results at 2:25:00 hrs:
  ----------------------------------------------
                     Demand      Head  Pressure
  Node                 m3/h         m         m
  ----------------------------------------------
  1                   52.04    203.78     43.78
  2                   52.04    207.82     57.82
  3                  140.51    199.87     49.87
  4                   62.45    206.56     51.56
  5                  104.08    202.60     42.60
  6                  171.73    205.34     40.34
  7                 -582.85    210.00      0.00  Reservoir
   
   
  Link Results at 2:25:00 hrs:
  ------------------------------------
                       Flow     State
  Link                 m3/h          
  ------------------------------------
  1                   96.50      open
  2                   44.46      open
  3                  434.31      open
  4                   59.42      open
  5                   36.63      open
  6                  312.44      open
  7                  140.71      open
  8                  582.85      open
   
   
  Node Results at 2:30:00 hrs:
  ----------------------------------------------
                     Demand      Head  Pressure
  Node                 m3/h         m         m
  ----------------------------------------------
  1                   46.35    204.98     44.98
  2                   46.35    208.24     58.24
  3                  125.14    201.83     51.83
  4                   55.62    207.23     52.23
  5                   92.69    204.03     44.03
  6                  152.95    206.24     41.24
  7                 -519.09    210.00      0.00  Reservoir
   
   
  Link Results at 2:30:00 hrs:
  ------------------------------------
                       Flow     State
  Link                 m3/h          
  ------------------------------------
  1                   85.94      open
  2                   39.59      open
  3                  386.80      open
  4                   52.92      open
  5                   32.62      open
  6                  278.26      open
  7                  125.32      open
  8                  519.09      open
   
   
  Node Results at 2:35:00 hrs:
  ----------------------------------------------
                     Demand      Head  Pressure
  Node                 m3/h         m         m
  ----------------------------------------------
  1                   46.31    204.99     44.99
  2                   46.31    208.25     58.25
  3                  125.04    201.84     51.84
  4                   55.57    207.23     52.23
  5                   92.62    204.04     44.04
  6                  152.82    206.25     41.25
  7                 -518.67    210.00      0.00  Reservoir
   
   
  Link Results at 2:35:00 hrs:
  ------------------------------------
                       Flow     State
  Link                 m3/h          
  ------------------------------------
  1                   85.87      open
  2                   39.56      open
  3                  386.49      open
  4                   52.88      open
  5                   32.59      open
  6                  278.04      open
  7                  125.21      open
  8                  518.67      open
   
   
  Node Results at 2:40:00 hrs:
  ----------------------------------------------
                     Demand      Head  Pressure
  Node                 m3/h         m         m
  ----------------------------------------------
  1                   40.94    206.01     46.01
  2                   40.94    208.60     58.60
  3                  110.54    203.50     53.50
  4                   49.13    207.79     52.79
  5                   81.88    205.26     45.26
  6                  135.11    207.01     42.01
  7                 -458.55    210.00      0.00  Reservoir
   
   
  Link Results at 2:40:00 hrs:
  ------------------------------------
                       Flow     State
  Link                 m3/h          
  ------------------------------------
  1                   75.92      open
  2                   34.98      open
  3                  341.69      open
  4                   46.75      open
  5                   28.82      open
  6                  245.81      open
  7                  110.70      open
  8                  458.55      open
   
   
  Node Results at 2:45:00 hrs:
  ----------------------------------------------
                     Demand      Head  Pressure
  Node                 m3/h         m         m
  ----------------------------------------------
  1                   36.31    206.81     46.81
  2                   36.31    208.88     58.88
  3                   98.03    204.80     54.80
  4                   43.57    208.23     53.23
  5                   72.61    206.20     46.20
  6                  119.81    207.61     42.61
  7                 -406.63    210.00      0.00  Reservoir
   
   
  Link Results at 2:45:00 hrs:
  ------------------------------------
                       Flow     State
  Link                 m3/h          
  ------------------------------------
  1                   67.32      open
  2                   31.02      open
  3                  303.00      open
  4                   41.46      open
  5                   25.55      open
  6                  217.98      open
  7                   98.17      open
  8                  406.63      open
   
   
  Node Results at 2:50:00 hrs:
  ----------------------------------------------
                     Demand      Head  Pressure
  Node                 m3/h         m         m
  ----------------------------------------------
  1                   40.98    206.00     46.00
  2                   40.98    208.60     58.60
  3                  110.66    203.49     53.49
  4                   49.18    207.79     52.79
  5                   81.97    205.25     45.25
  6                  135.25    207.01     42.01
  7                 -459.02    210.00      0.00  Reservoir
   
   
  Link Results at 2:50:00 hrs:
  ------------------------------------
                       Flow     State
  Link                 m3/h          
  ------------------------------------
  1                   76.00      open
  2                   35.01      open
  3                  342.04      open
  4                   46.80      open
  5                   28.85      open
  6                  246.06      open
  7                  110.81      open
  8                  459.02      open
   
   
  Node Results at 2:55:00 hrs:
  ----------------------------------------------
                     Demand      Head  Pressure
  Node                 m3/h         m         m
  ----------------------------------------------
  1                   41.63    205.89     45.89
  2                   41.63    208.56     58.56
  3                  112.39    203.30     53.30
  4                   49.95    207.73     52.73
  5                   83.25    205.11     45.11
  6                  137.36    206.92     41.92
  7                 -466.20    210.00      0.00  Reservoir
   
   
  Link Results at 2:55:00 hrs:
  ------------------------------------
                       Flow     State
  Link                 m3/h          
  ------------------------------------
  1                   77.19      open
  2                   35.56      open
  3                  347.39      open
  4                   47.53      open
  5                   29.30      open
  6                  249.91      open
  7                  112.55      open
  8                  466.20      open
   
   
  Node Results at 3:00:00 hrs:
  ----------------------------------------------
                     Demand      Head  Pressure
  Node                 m3/h         m         m
  ----------------------------------------------
  1                   43.94    205.45     45.45
  2                   43.94    208.41     58.41
  3                  118.63    202.60     52.60
  4                   52.72    207.49     52.49
  5                   87.87    204.59     44.59
  6                  144.99    206.60     41.60
  7                 -492.09    210.00      0.00  Reservoir
   
   
  Link Results at 3:00:00 hrs:
  ------------------------------------
                       Flow     State
  Link                 m3/h          
  ------------------------------------
  1                   81.47      open
  2                   37.53      open
  3                  366.69      open
  4                   50.17      open
  5                   30.92      open
  6                  263.79      open
  7                  118.80      open
  8                  492.09      open
   
   
  Node Results at 3:05:00 hrs:
  ----------------------------------------------
                     Demand      Head  Pressure
  Node                 m3/h         m         m
  ----------------------------------------------
  1                   42.56    205.71     45.71
  2                   42.56    208.50     58.50
  3                  114.91    203.02     53.02
  4                   51.07    207.63     52.63
  5                   85.12    204.90     44.90
  6                  140.45    206.79     41.79
  7                 -476.68    210.00      0.00  Reservoir
   
   
  Link Results at 3:05:00 hrs:
  ------------------------------------
                       Flow     State
  Link                 m3/h          
  ------------------------------------
  1                   78.92      open
  2                   36.36      open
  3                  355.20      open
  4                   48.60      open
  5                   29.96      open
  6                  255.52      open
  7                  115.08      open
  8                  476.68      open
   
   
  Node Results at 3:10:00 hrs:
  ----------------------------------------------
                     Demand      Head  Pressure
  Node                 m3/h         m         m
  ----------------------------------------------
  1                   36.45    206.78     46.78
  2                   36.45    208.87     58.87
  3                   98.41    204.76     54.76
  4                   43.74    208.22     53.22
  5                   72.89    206.17     46.17
  6                  120.27    207.59     42.59
  7                 -408.20    210.00      0.00  Reservoir
   
   
  Link Results at 3:10:00 hrs:
  ------------------------------------
                       Flow     State
  Link                 m3/h          
  ------------------------------------
  1                   67.58      open
  2                   31.14      open
  3                  304.17      open
  4                   41.62      open
  5                   25.65      open
  6                  218.82      open
  7                   98.55      open
  8                  408.20      open
   
   
  Node Results at 3:15:00 hrs:
  ----------------------------------------------
                     Demand      Head  Pressure
  Node                 m3/h         m         m
  ----------------------------------------------
  1                   35.51    206.94     46.94
  2                   35.51    208.93     58.93
  3                   95.88    205.01     55.01
  4                   42.61    208.31     53.31
  5                   71.02    206.35     46.35
  6                  117.18    207.71     42.71
  7                 -397.71    210.00      0.00  Reservoir
   
   
  Link Results at 3:15:00 hrs:
  ------------------------------------
                       Flow     State
  Link                 m3/h          
  ------------------------------------
  1                   65.85      open
  2                   30.34      open
  3                  296.36      open
  4                   40.55      open
  5                   24.99      open
  6                  213.20      open
  7                   96.01      open
  8                  397.71      open
   
   
  Node Results at 3:20:00 hrs:
  ----------------------------------------------
                     Demand      Head  Pressure
  Node                 m3/h         m         m
  ----------------------------------------------
  1                   32.24    207.44     47.44
  2                   32.24    209.10     59.10
  3                   87.04    205.83     55.83
  4                   38.69    208.58     53.58
  5                   64.48    206.95     46.95
  6                  106.39    208.08     43.08
  7                 -361.07    210.00      0.00  Reservoir
   
   
  Link Results at 3:20:00 hrs:
  ------------------------------------
                       Flow     State
  Link                 m3/h          
  ------------------------------------
  1                   59.78      open
  2                   27.54      open
  3                  269.05      open
  4                   36.81      open
  5                   22.69      open
  6                  193.55      open
  7                   87.17      open
  8                  361.07      open
   
   
  Node Results at 3:25:00 hrs:
  ----------------------------------------------
                     Demand      Head  Pressure
  Node                 m3/h         m         m
  ----------------------------------------------
  1                   30.17    207.73     47.73
  2                   30.17    209.21     59.21
  3                   81.47    206.31     56.31
  4                   36.21    208.75     53.75
  5                   60.35    207.30     47.30
  6                   99.58    208.30     43.30
  7                 -337.95    210.00      0.00  Reservoir
   
   
  Link Results at 3:25:00 hrs:
  ------------------------------------
                       Flow     State
  Link                 m3/h          
  ------------------------------------
  1                   55.95      open
  2                   25.78      open
  3                  251.83      open
  4                   34.46      open
  5                   21.24      open
  6                  181.16      open
  7                   81.59      open
  8                  337.95      open
   
   
  Node Results at 3:30:00 hrs:
  ----------------------------------------------
                     Demand      Head  Pressure
  Node                 m3/h         m         m
  ----------------------------------------------
  1                   28.47    207.96     47.96
  2                   28.47    209.29     59.29
  3                   76.88    206.68     56.68
  4                   34.17    208.87     53.87
  5                   56.95    207.58     47.58
  6                   93.96    208.48     43.48
  7                 -318.91    210.00      0.00  Reservoir
   
   
  Link Results at 3:30:00 hrs:
  ------------------------------------
                       Flow     State
  Link                 m3/h          
  ------------------------------------
  1                   52.80      open
  2                   24.32      open
  3                  237.64      open
  4                   32.51      open
  5                   20.04      open
  6                  170.95      open
  7                   76.99      open
  8                  318.91      open
   
   
  Node Results at 3:35:00 hrs:
  ----------------------------------------------
                     Demand      Head  Pressure
  Node                 m3/h         m         m
  ----------------------------------------------
  1                   37.02    206.69     46.69
  2                   37.02    208.84     58.84
  3                   99.95    204.61     54.61
  4                   44.42    208.17     53.17
  5                   74.04    206.06     46.06
  6                  122.16    207.52     42.52
  7                 -414.61    210.00      0.00  Reservoir
   
   
  Link Results at 3:35:00 hrs:
  ------------------------------------
                       Flow     State
  Link                 m3/h          
  ------------------------------------
  1                   68.64      open
  2                   31.62      open
  3                  308.95      open
  4                   42.27      open
  5                   26.05      open
  6                  222.25      open
  7                  100.09      open
  8                  414.61      open
   
   
  Node Results at 3:40:00 hrs:
  ----------------------------------------------
                     Demand      Head  Pressure
  Node                 m3/h         m         m
  ----------------------------------------------
  1                   29.94    207.77     47.77
  2                   29.94    209.22     59.22
  3                   80.83    206.36     56.36
  4                   35.93    208.76     53.76
  5                   59.88    207.34     47.34
  6                   98.80    208.33     43.33
  7                 -335.31    210.00      0.00  Reservoir
   
   
  Link Results at 3:40:00 hrs:
  ------------------------------------
                       Flow     State
  Link                 m3/h          
  ------------------------------------
  1                   55.51      open
  2                   25.58      open
  3                  249.85      open
  4                   34.19      open
  5                   21.07      open
  6                  179.74      open
  7                   80.95      open
  8                  335.31      open
   
   
  Node Results at 3:45:00 hrs:
  ----------------------------------------------
                     Demand      Head  Pressure
  Node                 m3/h         m         m
  ----------------------------------------------
  1                   29.50    207.83     47.83
  2                   29.50    209.24     59.24
  3                   79.65    206.46     56.46
  4                   35.40    208.80     53.80
  5                   59.00    207.41     47.41
  6                   97.35    208.37     43.37
  7                 -330.41    210.00      0.00  Reservoir
   
   
  Link Results at 3:45:00 hrs:
  ------------------------------------
                       Flow     State
  Link                 m3/h          
  ------------------------------------
  1                   54.70      open
  2                   25.20      open
  3                  246.21      open
  4                   33.69      open
  5                   20.76      open
  6                  177.12      open
  7                   79.77      open
  8                  330.41      open
   
   
  Node Results at 3:50:00 hrs:
  ----------------------------------------------
                     Demand      Head  Pressure
  Node                 m3/h         m         m
  ----------------------------------------------
  1                   27.12    208.14     48.14
  2                   27.12    209.35     59.35
  3                   73.22    206.97     56.97
  4                   32.54    208.97     53.97
  5                   54.23    207.79     47.79
  6                   89.49    208.61     43.61
  7                 -303.72    210.00      0.00  Reservoir
   
   
  Link Results at 3:50:00 hrs:
  ------------------------------------
                       Flow     State
  Link                 m3/h          
  ------------------------------------
  1                   50.28      open
  2                   23.17      open
  3                  226.31      open
  4                   30.97      open
  5                   19.09      open
  6                  162.81      open
  7                   73.32      open
  8                  303.72      open
   
   
  Node Results at 3:55:00 hrs:
  ----------------------------------------------
                     Demand      Head  Pressure
  Node                 m3/h         m         m
  ----------------------------------------------
  1                   31.80    207.50     47.50
  2                   31.80    209.13     59.13
  3                   85.86    205.93     55.93
  4                   38.16    208.62     53.62
  5                   63.60    207.03     47.03
  6                  104.94    208.13     43.13
  7                 -356.15    210.00      0.00  Reservoir
   
   
  Link Results at 3:55:00 hrs:
  ------------------------------------
                       Flow     State
  Link                 m3/h          
  ------------------------------------
  1                   58.96      open
  2                   27.17      open
  3                  265.39      open
  4                   36.31      open
  5                   22.38      open
  6                  190.92      open
  7                   85.98      open
  8                  356.15      open
   
   
  Node Results at 4:00:00 hrs:
  ----------------------------------------------
                     Demand      Head  Pressure
  Node                 m3/h         m         m
  ----------------------------------------------
  1                   26.13    208.26     48.26
  2                   26.13    209.39     59.39
  3                   70.54    207.17     57.17
  4                   31.35    209.04     54.04
  5                   52.25    207.94     47.94
  6                   86.22    208.70     43.70
  7                 -292.62    210.00      0.00  Reservoir
   
   
  Link Results at 4:00:00 hrs:
  ------------------------------------
                       Flow     State
  Link                 m3/h          
  ------------------------------------
  1                   48.45      open
  2                   22.32      open
  3                  218.05      open
  4                   29.83      open
  5                   18.39      open
  6                  156.86      open
  7                   70.64      open
  8                  292.62      open
   
   
  Node Results at 4:05:00 hrs:
  ----------------------------------------------
                     Demand      Head  Pressure
  Node                 m3/h         m         m
  ----------------------------------------------
  1                   29.83    207.78     47.78
  2                   29.83    209.22     59.22
  3                   80.54    206.39     56.39
  4                   35.79    208.77     53.77
  5                   59.66    207.36     47.36
  6                   98.43    208.34     43.34
  7                 -334.07    210.00      0.00  Reservoir
   
   
  Link Results at 4:05:00 hrs:
  ------------------------------------
                       Flow     State
  Link                 m3/h          
  ------------------------------------
  1                   55.31      open
  2                   25.48      open
  3                  248.94      open
  4                   34.06      open
  5                   20.99      open
  6                  179.08      open
  7                   80.65      open
  8                  334.07      open
   
   
  Node Results at 4:10:00 hrs:
  ----------------------------------------------
                     Demand      Head  Pressure
  Node                 m3/h         m         m
  ----------------------------------------------
  1                   28.72    207.93     47.93
  2                   28.72    209.28     59.28
  3                   77.54    206.63     56.63
  4                   34.46    208.86     53.86
  5                   57.44    207.54     47.54
  6                   94.77    208.45     43.45
  7                 -321.65    210.00      0.00  Reservoir
   
   
  Link Results at 4:10:00 hrs:
  ------------------------------------
                       Flow     State
  Link                 m3/h          
  ------------------------------------
  1                   53.25      open
  2                   24.53      open
  3                  239.68      open
  4                   32.79      open
  5                   20.21      open
  6                  172.42      open
  7                   77.65      open
  8                  321.65      open
   
   
  Node Results at 4:15:00 hrs:
  ----------------------------------------------
                     Demand      Head  Pressure
  Node                 m3/h         m         m
  ----------------------------------------------
  1                   32.71    207.37     47.37
  2                   32.71    209.08     59.08
  3                   88.31    205.71     55.71
  4                   39.25    208.54     53.54
  5                   65.42    206.87     46.87
  6                  107.94    208.03     43.03
  7                 -366.33    210.00      0.00  Reservoir
   
   
  Link Results at 4:15:00 hrs:
  ------------------------------------
                       Flow     State
  Link                 m3/h          
  ------------------------------------
  1                   60.65      open
  2                   27.94      open
  3                  272.97      open
  4                   37.35      open
  5                   23.02      open
  6                  196.37      open
  7                   88.44      open
  8                  366.33      open
   
   
  Node Results at 4:20:00 hrs:
  ----------------------------------------------
                     Demand      Head  Pressure
  Node                 m3/h         m         m
  ----------------------------------------------
  1                   31.33    207.57     47.57
  2                   31.33    209.15     59.15
  3                   84.60    206.04     56.04
  4                   37.60    208.66     53.66
  5                   62.67    207.11     47.11
  6                  103.40    208.18     43.18
  7                 -350.93    210.00      0.00  Reservoir
   
   
  Link Results at 4:20:00 hrs:
  ------------------------------------
                       Flow     State
  Link                 m3/h          
  ------------------------------------
  1                   58.10      open
  2                   26.77      open
  3                  261.50      open
  4                   35.78      open
  5                   22.05      open
  6                  188.12      open
  7                   84.72      open
  8                  350.93      open
   
   
  Node Results at 4:25:00 hrs:
  ----------------------------------------------
                     Demand      Head  Pressure
  Node                 m3/h         m         m
  ----------------------------------------------
  1                   30.53    207.68     47.68
  2                   30.53    209.19     59.19
  3                   82.43    206.23     56.23
  4                   36.64    208.72     53.72
  5                   61.06    207.24     47.24
  6                  100.75    208.27     43.27
  7                 -341.95    210.00      0.00  Reservoir
   
   
  Link Results at 4:25:00 hrs:
  ------------------------------------
                       Flow     State
  Link                 m3/h          
  ------------------------------------
  1                   56.61      open
  2                   26.08      open
  3                  254.80      open
  4                   34.86      open
  5                   21.49      open
  6                  183.30      open
  7                   82.55      open
  8                  341.95      open
   
   
  Node Results at 4:30:00 hrs:
  ----------------------------------------------
                     Demand      Head  Pressure
  Node                 m3/h         m         m
  ----------------------------------------------
  1                   34.74    207.06     47.06
  2                   34.74    208.97     58.97
  3                   93.80    205.21     55.21
  4                   41.69    208.37     53.37
  5                   69.48    206.50     46.50
  6                  114.65    207.80     42.80
  7                 -389.11    210.00      0.00  Reservoir
   
   
  Link Results at 4:30:00 hrs:
  ------------------------------------
                       Flow     State
  Link                 m3/h          
  ------------------------------------
  1                   64.42      open
  2                   29.68      open
  3                  289.95      open
  4                   39.67      open
  5                   24.45      open
  6                  208.58      open
  7                   93.94      open
  8                  389.11      open
   
   
  Node Results at 4:35:00 hrs:
  ----------------------------------------------
                     Demand      Head  Pressure
  Node                 m3/h         m         m
  ----------------------------------------------
  1                   37.17    206.67     46.67
  2                   37.17    208.83     58.83
  3                  100.35    204.57     54.57
  4                   44.60    208.16     53.16
  5                   74.33    206.03     46.03
  6                  122.65    207.50     42.50
  7                 -416.26    210.00      0.00  Reservoir
   
   
  Link Results at 4:35:00 hrs:
  ------------------------------------
                       Flow     State
  Link                 m3/h          
  ------------------------------------
  1                   68.92      open
  2                   31.75      open
  3                  310.18      open
  4                   42.44      open
  5                   26.16      open
  6                  223.14      open
  7                  100.49      open
  8                  416.26      open
   
   
  Node Results at 4:40:00 hrs:
  ----------------------------------------------
                     Demand      Head  Pressure
  Node                 m3/h         m         m
  ----------------------------------------------
  1                   37.21    206.66     46.66
  2                   37.21    208.83     58.83
  3                  100.46    204.56     54.56
  4                   44.65    208.15     53.15
  5                   74.42    206.03     46.03
  6                  122.79    207.50     42.50
  7                 -416.74    210.00      0.00  Reservoir
   
   
  Link Results at 4:40:00 hrs:
  ------------------------------------
                       Flow     State
  Link                 m3/h          
  ------------------------------------
  1                   69.00      open
  2                   31.79      open
  3                  310.54      open
  4                   42.49      open
  5                   26.19      open
  6                  223.40      open
  7                  100.61      open
  8                  416.74      open
   
   
  Node Results at 4:45:00 hrs:
  ----------------------------------------------
                     Demand      Head  Pressure
  Node                 m3/h         m         m
  ----------------------------------------------
  1                   38.92    206.37     46.37
  2                   38.92    208.73     58.73
  3                  105.10    204.08     54.08
  4                   46.71    207.99     52.99
  5                   77.85    205.68     45.68
  6                  128.45    207.28     42.28
  7                 -435.95    210.00      0.00  Reservoir
   
   
  Link Results at 4:45:00 hrs:
  ------------------------------------
                       Flow     State
  Link                 m3/h          
  ------------------------------------
  1                   72.18      open
  2                   33.25      open
  3                  324.85      open
  4                   44.45      open
  5                   27.40      open
  6                  233.69      open
  7                  105.24      open
  8                  435.95      open
   
   
  Node Results at 4:50:00 hrs:
  ----------------------------------------------
                     Demand      Head  Pressure
  Node                 m3/h         m         m
  ----------------------------------------------
  1                   36.89    206.71     46.71
  2                   36.89    208.85     58.85
  3                   99.61    204.64     54.64
  4                   44.27    208.18     53.18
  5                   73.79    206.09     46.09
  6                  121.75    207.54     42.54
  7                 -413.20    210.00      0.00  Reservoir
   
   
  Link Results at 4:50:00 hrs:
  ------------------------------------
                       Flow     State
  Link                 m3/h          
  ------------------------------------
  1                   68.41      open
  2                   31.52      open
  3                  307.90      open
  4                   42.13      open
  5                   25.97      open
  6                  221.50      open
  7                   99.75      open
  8                  413.20      open
   
   
  Node Results at 4:55:00 hrs:
  ----------------------------------------------
                     Demand      Head  Pressure
  Node                 m3/h         m         m
  ----------------------------------------------
  1                   38.40    206.46     46.46
  2                   38.40    208.76     58.76
  3                  103.68    204.23     54.23
  4                   46.08    208.04     53.04
  5                   76.80    205.79     45.79
  6                  126.71    207.35     42.35
  7                 -430.06    210.00      0.00  Reservoir
   
   
  Link Results at 4:55:00 hrs:
  ------------------------------------
                       Flow     State
  Link                 m3/h          
  ------------------------------------
  1                   71.20      open
  2                   32.80      open
  3                  320.46      open
  4                   43.85      open
  5                   27.03      open
  6                  230.54      open
  7                  103.82      open
  8                  430.06      open
   
   
  Node Results at 5:00:00 hrs:
  ----------------------------------------------
                     Demand      Head  Pressure
  Node                 m3/h         m         m
  ----------------------------------------------
  1                   37.85    206.55     46.55
  2                   37.85    208.79     58.79
  3                  102.19    204.38     54.38
  4                   45.42    208.09     53.09
  5                   75.70    205.90     45.90
  6                  124.90    207.42     42.42
  7                 -423.90    210.00      0.00  Reservoir
   
   
  Link Results at 5:00:00 hrs:
  ------------------------------------
                       Flow     State
  Link                 m3/h          
  ------------------------------------
  1                   70.18      open
  2                   32.33      open
  3                  315.87      open
  4                   43.22      open
  5                   26.64      open
  6                  227.23      open
  7                  102.33      open
  8                  423.90      open
   
   
  Node Results at 5:05:00 hrs:
  ----------------------------------------------
                     Demand      Head  Pressure
  Node                 m3/h         m         m
  ----------------------------------------------
  1                   39.05    206.35     46.35
  2                   39.05    208.72     58.72
  3                  105.43    204.05     54.05
  4                   46.86    207.98     52.98
  5                   78.09    205.65     45.65
  6                  128.85    207.26     42.26
  7                 -437.32    210.00      0.00  Reservoir
   
   
  Link Results at 5:05:00 hrs:
  ------------------------------------
                       Flow     State
  Link                 m3/h          
  ------------------------------------
  1                   72.40      open
  2                   33.36      open
  3                  325.87      open
  4                   44.59      open
  5                   27.48      open
  6                  234.43      open
  7                  105.58      open
  8                  437.32      open
   
   
  Node Results at 5:10:00 hrs:
  ----------------------------------------------
                     Demand      Head  Pressure
  Node                 m3/h         m         m
  ----------------------------------------------
  1                   37.60    206.59     46.59
  2                   37.60    208.81     58.81
  3                  101.53    204.45     54.45
  4                   45.13    208.12     53.12
  5                   75.21    205.95     45.95
  6                  124.10    207.45     42.45
  7                 -421.17    210.00      0.00  Reservoir
   
   
  Link Results at 5:10:00 hrs:
  ------------------------------------
                       Flow     State
  Link                 m3/h          
  ------------------------------------
  1                   69.73      open
  2                   32.12      open
  3                  313.84      open
  4                   42.94      open
  5                   26.47      open
  6                  225.77      open
  7                  101.68      open
  8                  421.17      open
   
   
  Node Results at 5:15:00 hrs:
  ----------------------------------------------
                     Demand      Head  Pressure
  Node                 m3/h         m         m
  ----------------------------------------------
  1                   34.60    207.08     47.08
  2                   34.60    208.98     58.98
  3                   93.42    205.24     55.24
  4                   41.52    208.39     53.39
  5                   69.20    206.53     46.53
  6                  114.18    207.81     42.81
  7                 -387.53    210.00      0.00  Reservoir
   
   
  Link Results at 5:15:00 hrs:
  ------------------------------------
                       Flow     State
  Link                 m3/h          
  ------------------------------------
  1                   64.16      open
  2                   29.56      open
  3                  288.77      open
  4                   39.51      open
  5                   24.35      open
  6                  207.74      open
  7                   93.55      open
  8                  387.53      open
   
   
  Node Results at 5:20:00 hrs:
  ----------------------------------------------
                     Demand      Head  Pressure
  Node                 m3/h         m         m
  ----------------------------------------------
  1                   40.63    206.07     46.07
  2                   40.63    208.62     58.62
  3                  109.71    203.60     53.60
  4                   48.76    207.83     52.83
  5                   81.26    205.32     45.32
  6                  134.09    207.06     42.06
  7                 -455.08    210.00      0.00  Reservoir
   
   
  Link Results at 5:20:00 hrs:
  ------------------------------------
                       Flow     State
  Link                 m3/h          
  ------------------------------------
  1                   75.34      open
  2                   34.71      open
  3                  339.10      open
  4                   46.40      open
  5                   28.60      open
  6                  243.95      open
  7                  109.86      open
  8                  455.08      open
   
   
  Node Results at 5:25:00 hrs:
  ----------------------------------------------
                     Demand      Head  Pressure
  Node                 m3/h         m         m
  ----------------------------------------------
  1                   38.78    206.39     46.39
  2                   38.78    208.74     58.74
  3                  104.70    204.13     54.13
  4                   46.53    208.01     53.01
  5                   77.56    205.71     45.71
  6                  127.97    207.30     42.30
  7                 -434.32    210.00      0.00  Reservoir
   
   
  Link Results at 5:25:00 hrs:
  ------------------------------------
                       Flow     State
  Link                 m3/h          
  ------------------------------------
  1                   71.91      open
  2                   33.13      open
  3                  323.64      open
  4                   44.28      open
  5                   27.29      open
  6                  232.82      open
  7                  104.85      open
  8                  434.32      open
   
   
  Node Results at 5:30:00 hrs:
  ----------------------------------------------
                     Demand      Head  Pressure
  Node                 m3/h         m         m
  ----------------------------------------------
  1                   35.00    207.02     47.02
  2                   35.00    208.96     58.96
  3                   94.49    205.14     55.14
  4                   42.00    208.35     53.35
  5                   69.99    206.45     46.45
  6                  115.49    207.77     42.77
  7                 -391.95    210.00      0.00  Reservoir
   
   
  Link Results at 5:30:00 hrs:
  ------------------------------------
                       Flow     State
  Link                 m3/h          
  ------------------------------------
  1                   64.89      open
  2                   29.90      open
  3                  292.06      open
  4                   39.96      open
  5                   24.63      open
  6                  210.11      open
  7                   94.62      open
  8                  391.95      open
   
   
  Node Results at 5:35:00 hrs:
  ----------------------------------------------
                     Demand      Head  Pressure
  Node                 m3/h         m         m
  ----------------------------------------------
  1                   42.19    205.78     45.78
  2                   42.19    208.52     58.52
  3                  113.92    203.13     53.13
  4                   50.63    207.67     52.67
  5                   84.39    204.98     44.98
  6                  139.24    206.84     41.84
  7                 -472.56    210.00      0.00  Reservoir
   
   
  Link Results at 5:35:00 hrs:
  ------------------------------------
                       Flow     State
  Link                 m3/h          
  ------------------------------------
  1                   78.24      open
  2                   36.04      open
  3                  352.13      open
  4                   48.18      open
  5                   29.70      open
  6                  253.32      open
  7                  114.08      open
  8                  472.56      open
   
   
  Node Results at 5:40:00 hrs:
  ----------------------------------------------
                     Demand      Head  Pressure
  Node                 m3/h         m         m
  ----------------------------------------------
  1                   38.47    206.45     46.45
  2                   38.47    208.76     58.76
  3                  103.87    204.21     54.21
  4                   46.17    208.03     53.03
  5                   76.94    205.77     45.77
  6                  126.96    207.34     42.34
  7                 -430.88    210.00      0.00  Reservoir
   
   
  Link Results at 5:40:00 hrs:
  ------------------------------------
                       Flow     State
  Link                 m3/h          
  ------------------------------------
  1                   71.34      open
  2                   32.87      open
  3                  321.07      open
  4                   43.93      open
  5                   27.08      open
  6                  230.97      open
  7                  104.02      open
  8                  430.88      open
   
   
  Node Results at 5:45:00 hrs:
  ----------------------------------------------
                     Demand      Head  Pressure
  Node                 m3/h         m         m
  ----------------------------------------------
  1                   42.90    205.65     45.65
  2                   42.90    208.48     58.48
  3                  115.83    202.92     52.92
  4                   51.48    207.60     52.60
  5                   85.80    204.83     44.83
  6                  141.57    206.74     41.74
  7                 -480.47    210.00      0.00  Reservoir
   
   
  Link Results at 5:45:00 hrs:
  ------------------------------------
                       Flow     State
  Link                 m3/h          
  ------------------------------------
  1                   79.55      open
  2                   36.65      open
  3                  358.02      open
  4                   48.99      open
  5                   30.19      open
  6                  257.56      open
  7                  115.99      open
  8                  480.47      open
   
   
  Node Results at 5:50:00 hrs:
  ----------------------------------------------
                     Demand      Head  Pressure
  Node                 m3/h         m         m
  ----------------------------------------------
  1                   47.09    204.83     44.83
  2                   47.09    208.19     58.19
  3                  127.14    201.58     51.58
  4                   56.51    207.14     52.14
  5                   94.18    203.85     43.85
  6                  155.40    206.13     41.13
  7                 -527.41    210.00      0.00  Reservoir
   
   
  Link Results at 5:50:00 hrs:
  ------------------------------------
                       Flow     State
  Link                 m3/h          
  ------------------------------------
  1                   87.32      open
  2                   40.23      open
  3                  393.00      open
  4                   53.77      open
  5                   33.14      open
  6                  282.72      open
  7                  127.32      open
  8                  527.41      open
   
   
  Node Results at 5:55:00 hrs:
  ----------------------------------------------
                     Demand      Head  Pressure
  Node                 m3/h         m         m
  ----------------------------------------------
  1                   47.37    204.77     44.77
  2                   47.37    208.17     58.17
  3                  127.91    201.49     51.49
  4                   56.85    207.11     52.11
  5                   94.75    203.78     43.78
  6                  156.34    206.09     41.09
  7                 -530.60    210.00      0.00  Reservoir
   
   
  Link Results at 5:55:00 hrs:
  ------------------------------------
                       Flow     State
  Link                 m3/h          
  ------------------------------------
  1                   87.85      open
  2                   40.47      open
  3                  395.38      open
  4                   54.10      open
  5                   33.34      open
  6                  284.43      open
  7                  128.09      open
  8                  530.60      open
   
   
  Node Results at 6:00:00 hrs:
  ----------------------------------------------
                     Demand      Head  Pressure
  Node                 m3/h         m         m
  ----------------------------------------------
  1                   54.56    203.21     43.21
  2                   54.56    207.62     57.62
  3                  147.31    198.95     48.95
  4                   65.47    206.25     51.25
  5                  109.12    201.93     41.93
  6                  180.04    204.92     39.92
  7                 -611.05    210.00      0.00  Reservoir
   
   
  Link Results at 6:00:00 hrs:
  ------------------------------------
                       Flow     State
  Link                 m3/h          
  ------------------------------------
  1                  101.17      open
  2                   46.61      open
  3                  455.32      open
  4                   62.30      open
  5                   38.40      open
  6                  327.55      open
  7                  147.51      open
  8                  611.05      open
   
   
  Node Results at 6:05:00 hrs:
  ----------------------------------------------
                     Demand      Head  Pressure
  Node                 m3/h         m         m
  ----------------------------------------------
  1                   48.56    204.53     44.53
  2                   48.56    208.09     58.09
  3                  131.10    201.09     51.09
  4                   58.27    206.98     51.98
  5                   97.11    203.49     43.49
  6                  160.24    205.90     40.90
  7                 -543.84    210.00      0.00  Reservoir
   
   
  Link Results at 6:05:00 hrs:
  ------------------------------------
                       Flow     State
  Link                 m3/h          
  ------------------------------------
  1                   90.04      open
  2                   41.48      open
[...]
   
  Link Results at 166:30:00 hrs:
  ------------------------------------
                       Flow     State
  Link                 m3/h          
  ------------------------------------
  1                  213.97      open
  2                   98.58      open
  3                  963.02      open
  4                  131.76      open
  5                   81.22      open
  6                  692.79      open
  7                  312.00      open
  8                 1292.38      open
   
   
  Node Results at 166:35:00 hrs:
  ----------------------------------------------
                     Demand      Head  Pressure
  Node                 m3/h         m         m
  ----------------------------------------------
  1                  112.90    183.89     23.89
  2                  112.90    200.87     50.87
  3                  304.84    167.49     17.49
  4                  135.48    195.57     40.57
  5                  225.80    178.95     18.95
  6                  372.58    190.46     25.46
  7                -1264.51    210.00      0.00  Reservoir
   
   
  Link Results at 166:35:00 hrs:
  ------------------------------------
                       Flow     State
  Link                 m3/h          
  ------------------------------------
  1                  209.35      open
  2                   96.45      open
  3                  942.25      open
  4                  128.92      open
  5                   79.46      open
  6                  677.85      open
  7                  305.27      open
  8                 1264.51      open
   
   
  Node Results at 166:40:00 hrs:
  ----------------------------------------------
                     Demand      Head  Pressure
  Node                 m3/h         m         m
  ----------------------------------------------
  1                  109.81    185.21     25.21
  2                  109.81    201.32     51.32
  3                  296.48    169.63     19.63
  4                  131.77    196.29     41.29
  5                  219.61    180.51     20.51
  6                  362.36    191.44     26.44
  7                -1229.83    210.00      0.00  Reservoir
   
   
  Link Results at 166:40:00 hrs:
  ------------------------------------
                       Flow     State
  Link                 m3/h          
  ------------------------------------
  1                  203.61      open
  2                   93.80      open
  3                  916.41      open
  4                  125.39      open
  5                   77.28      open
  6                  659.26      open
  7                  296.90      open
  8                 1229.83      open
   
   
  Node Results at 166:45:00 hrs:
  ----------------------------------------------
                     Demand      Head  Pressure
  Node                 m3/h         m         m
  ----------------------------------------------
  1                  107.07    186.34     26.34
  2                  107.07    201.72     51.72
  3                  289.08    171.47     21.47
  4                  128.48    196.92     41.92
  5                  214.13    181.86     21.86
  6                  353.32    192.29     27.29
  7                -1199.15    210.00      0.00  Reservoir
   
   
  Link Results at 166:45:00 hrs:
  ------------------------------------
                       Flow     State
  Link                 m3/h          
  ------------------------------------
  1                  198.53      open
  2                   91.46      open
  3                  893.55      open
  4                  122.26      open
  5                   75.36      open
  6                  642.81      open
  7                  289.49      open
  8                 1199.15      open
   
   
  Node Results at 166:50:00 hrs:
  ----------------------------------------------
                     Demand      Head  Pressure
  Node                 m3/h         m         m
  ----------------------------------------------
  1                  123.29    179.27     19.27
  2                  123.29    199.25     49.25
  3                  332.88    159.97      9.97
  4                  147.95    193.01     38.01
  5                  246.58    173.45     13.45
  6                  406.85    187.00     22.00
  7                -1380.84    210.00      0.00  Reservoir
   
   
  Link Results at 166:50:00 hrs:
  ------------------------------------
                       Flow     State
  Link                 m3/h          
  ------------------------------------
  1                  228.61      open
  2                  105.32      open
  3                 1028.94      open
  4                  140.78      open
  5                   86.77      open
  6                  740.21      open
  7                  333.35      open
  8                 1380.84      open
   
   
  Node Results at 166:55:00 hrs:
  ----------------------------------------------
                     Demand      Head  Pressure
  Node                 m3/h         m         m
  ----------------------------------------------
  1                  112.17    184.21     24.21
  2                  112.17    200.97     50.97
  3                  302.86    168.00     18.00
  4                  134.61    195.74     40.74
  5                  224.34    179.32     19.32
  6                  370.16    190.69     25.69
  7                -1256.31    210.00      0.00  Reservoir
   
   
  Link Results at 166:55:00 hrs:
  ------------------------------------
                       Flow     State
  Link                 m3/h          
  ------------------------------------
  1                  208.00      open
  2                   95.83      open
  3                  936.15      open
  4                  128.09      open
  5                   78.95      open
  6                  673.45      open
  7                  303.29      open
  8                 1256.31      open
   
   
  Node Results at 167:00:00 hrs:
  ----------------------------------------------
                     Demand      Head  Pressure
  Node                 m3/h         m         m
  ----------------------------------------------
  1                  119.22    181.12     21.12
  2                  119.22    199.90     49.90
  3                  321.91    162.98     12.98
  4                  143.07    194.03     39.03
  5                  238.45    175.65     15.65
  6                  393.44    188.38     23.38
  7                -1335.31    210.00      0.00  Reservoir
   
   
  Link Results at 167:00:00 hrs:
  ------------------------------------
                       Flow     State
  Link                 m3/h          
  ------------------------------------
  1                  221.07      open
  2                  101.85      open
  3                  995.01      open
  4                  136.14      open
  5                   83.91      open
  6                  715.80      open
  7                  322.36      open
  8                 1335.31      open
   
   
  Node Results at 167:05:00 hrs:
  ----------------------------------------------
                     Demand      Head  Pressure
  Node                 m3/h         m         m
  ----------------------------------------------
  1                  111.71    184.40     24.40
  2                  111.71    201.04     51.04
  3                  301.62    168.32     18.32
  4                  134.05    195.85     40.85
  5                  223.42    179.55     19.55
  6                  368.64    190.84     25.84
  7                -1251.16    210.00      0.00  Reservoir
   
   
  Link Results at 167:05:00 hrs:
  ------------------------------------
                       Flow     State
  Link                 m3/h          
  ------------------------------------
  1                  207.14      open
  2                   95.43      open
  3                  932.30      open
  4                  127.56      open
  5                   78.62      open
  6                  670.69      open
  7                  302.05      open
  8                 1251.16      open
   
   
  Node Results at 167:10:00 hrs:
  ----------------------------------------------
                     Demand      Head  Pressure
  Node                 m3/h         m         m
  ----------------------------------------------
  1                  109.42    185.37     25.37
  2                  109.42    201.38     51.38
  3                  295.43    169.89     19.89
  4                  131.30    196.38     41.38
  5                  218.84    180.70     20.70
  6                  361.08    191.56     26.56
  7                -1225.48    210.00      0.00  Reservoir
   
   
  Link Results at 167:10:00 hrs:
  ------------------------------------
                       Flow     State
  Link                 m3/h          
  ------------------------------------
  1                  202.89      open
  2                   93.47      open
  3                  913.17      open
  4                  124.94      open
  5                   77.01      open
  6                  656.93      open
  7                  295.85      open
  8                 1225.48      open
   
   
  Node Results at 167:15:00 hrs:
  ----------------------------------------------
                     Demand      Head  Pressure
  Node                 m3/h         m         m
  ----------------------------------------------
  1                  110.28    185.01     25.01
  2                  110.28    201.25     51.25
  3                  297.76    169.30     19.30
  4                  132.34    196.18     41.18
  5                  220.56    180.27     20.27
  6                  363.93    191.29     26.29
  7                -1235.14    210.00      0.00  Reservoir
   
   
  Link Results at 167:15:00 hrs:
  ------------------------------------
                       Flow     State
  Link                 m3/h          
  ------------------------------------
  1                  204.49      open
  2                   94.21      open
  3                  920.37      open
  4                  125.93      open
  5                   77.62      open
  6                  662.11      open
  7                  298.18      open
  8                 1235.14      open
   
   
  Node Results at 167:20:00 hrs:
  ----------------------------------------------
                     Demand      Head  Pressure
  Node                 m3/h         m         m
  ----------------------------------------------
  1                  118.96    181.24     21.24
  2                  118.96    199.94     49.94
  3                  321.20    163.17     13.17
  4                  142.76    194.10     39.10
  5                  237.93    175.79     15.79
  6                  392.58    188.47     23.47
  7                -1332.39    210.00      0.00  Reservoir
   
   
  Link Results at 167:20:00 hrs:
  ------------------------------------
                       Flow     State
  Link                 m3/h          
  ------------------------------------
  1                  220.59      open
  2                  101.63      open
  3                  992.83      open
  4                  135.84      open
  5                   83.73      open
  6                  714.23      open
  7                  321.66      open
  8                 1332.39      open
   
   
  Node Results at 167:25:00 hrs:
  ----------------------------------------------
                     Demand      Head  Pressure
  Node                 m3/h         m         m
  ----------------------------------------------
  1                  118.60    181.40     21.40
  2                  118.60    199.99     49.99
  3                  320.23    163.43     13.43
  4                  142.32    194.19     39.19
  5                  237.21    175.98     15.98
  6                  391.39    188.59     23.59
  7                -1328.36    210.00      0.00  Reservoir
   
   
  Link Results at 167:25:00 hrs:
  ------------------------------------
                       Flow     State
  Link                 m3/h          
  ------------------------------------
  1                  219.92      open
  2                  101.32      open
  3                  989.83      open
  4                  135.43      open
  5                   83.48      open
  6                  712.07      open
  7                  320.68      open
  8                 1328.36      open
   
   
  Node Results at 167:30:00 hrs:
  ----------------------------------------------
                     Demand      Head  Pressure
  Node                 m3/h         m         m
  ----------------------------------------------
  1                  111.22    184.61     24.61
  2                  111.22    201.12     51.12
  3                  300.28    168.66     18.66
  4                  133.46    195.96     40.96
  5                  222.43    179.80     19.80
  6                  367.01    191.00     26.00
  7                -1245.61    210.00      0.00  Reservoir
   
   
  Link Results at 167:30:00 hrs:
  ------------------------------------
                       Flow     State
  Link                 m3/h          
  ------------------------------------
  1                  206.22      open
  2                   95.01      open
  3                  928.17      open
  4                  127.00      open
  5                   78.28      open
  6                  667.72      open
  7                  300.71      open
  8                 1245.61      open
   
   
  Node Results at 167:35:00 hrs:
  ----------------------------------------------
                     Demand      Head  Pressure
  Node                 m3/h         m         m
  ----------------------------------------------
  1                   97.10    190.25     30.25
  2                   97.10    203.09     53.09
  3                  262.17    177.85     27.85
  4                  116.52    199.08     44.08
  5                  194.20    186.51     26.51
  6                  320.44    195.22     30.22
  7                -1087.54    210.00      0.00  Reservoir
   
   
  Link Results at 167:35:00 hrs:
  ------------------------------------
                       Flow     State
  Link                 m3/h          
  ------------------------------------
  1                  180.05      open
  2                   82.95      open
  3                  810.39      open
  4                  110.88      open
  5                   68.34      open
  6                  582.98      open
  7                  262.55      open
  8                 1087.54      open
   
   
  Node Results at 167:40:00 hrs:
  ----------------------------------------------
                     Demand      Head  Pressure
  Node                 m3/h         m         m
  ----------------------------------------------
  1                  108.01    185.95     25.95
  2                  108.01    201.58     51.58
  3                  291.64    170.84     20.84
  4                  129.62    196.70     41.70
  5                  216.03    181.39     21.39
  6                  356.44    192.00     27.00
  7                -1209.75    210.00      0.00  Reservoir
   
   
  Link Results at 167:40:00 hrs:
  ------------------------------------
                       Flow     State
  Link                 m3/h          
  ------------------------------------
  1                  200.29      open
  2                   92.27      open
  3                  901.45      open
  4                  123.34      open
  5                   76.02      open
  6                  648.49      open
  7                  292.05      open
  8                 1209.75      open
   
   
  Node Results at 167:45:00 hrs:
  ----------------------------------------------
                     Demand      Head  Pressure
  Node                 m3/h         m         m
  ----------------------------------------------
  1                  105.32    187.05     27.05
  2                  105.32    201.97     51.97
  3                  284.37    172.63     22.63
  4                  126.39    197.31     42.31
  5                  210.64    182.70     22.70
  6                  347.56    192.82     27.82
  7                -1179.59    210.00      0.00  Reservoir
   
   
  Link Results at 167:45:00 hrs:
  ------------------------------------
                       Flow     State
  Link                 m3/h          
  ------------------------------------
  1                  195.29      open
  2                   89.97      open
  3                  878.98      open
  4                  120.27      open
  5                   74.13      open
  6                  632.33      open
  7                  284.77      open
  8                 1179.59      open
   
   
  Node Results at 167:50:00 hrs:
  ----------------------------------------------
                     Demand      Head  Pressure
  Node                 m3/h         m         m
  ----------------------------------------------
  1                   98.86    189.59     29.59
  2                   98.86    202.86     52.86
  3                  266.92    176.76     26.76
  4                  118.63    198.71     43.71
  5                  197.72    185.72     25.72
  6                  326.24    194.72     29.72
  7                -1107.23    210.00      0.00  Reservoir
   
   
  Link Results at 167:50:00 hrs:
  ------------------------------------
                       Flow     State
  Link                 m3/h          
  ------------------------------------
  1                  183.31      open
  2                   84.45      open
  3                  825.05      open
  4                  112.89      open
  5                   69.58      open
  6                  593.54      open
  7                  267.30      open
  8                 1107.23      open
   
   
  Node Results at 167:55:00 hrs:
  ----------------------------------------------
                     Demand      Head  Pressure
  Node                 m3/h         m         m
  ----------------------------------------------
  1                   88.95    193.21     33.21
  2                   88.95    204.13     54.13
  3                  240.16    182.67     32.67
  4                  106.74    200.72     45.72
  5                  177.90    190.03     30.03
  6                  293.53    197.43     32.43
  7                 -996.23    210.00      0.00  Reservoir
   
   
  Link Results at 167:55:00 hrs:
  ------------------------------------
                       Flow     State
  Link                 m3/h          
  ------------------------------------
  1                  164.94      open
  2                   75.99      open
  3                  742.34      open
  4                  101.57      open
  5                   62.60      open
  6                  534.04      open
  7                  240.50      open
  8                  996.23      open
   
   
  Node Results at 168:00:00 hrs:
  ----------------------------------------------
                     Demand      Head  Pressure
  Node                 m3/h         m         m
  ----------------------------------------------
  1                  102.70    188.09     28.09
  2                  102.70    202.33     52.33
  3                  277.29    174.33     24.33
  4                  123.24    197.89     42.89
  5                  205.40    183.94     23.94
  6                  338.91    193.60     28.60
  7                -1150.25    210.00      0.00  Reservoir
   
   
  Link Results at 168:00:00 hrs:
  ------------------------------------
                       Flow     State
  Link                 m3/h          
  ------------------------------------
  1                  190.44      open
  2                   87.74      open
  3                  857.12      open
  4                  117.27      open
  5                   72.28      open
  6                  616.60      open
  7                  277.69      open
  8                 1150.25      open
   
  Analysis ended Tue Mar  7 12:01:36 2023
