  Page 1                                    Tue Mar  7 12:01:45 2023

  ******************************************************************
  *                           E P A N E T                          *
  *                   Hydraulic and Water Quality                  *
  *                   Analysis for Pipe Networks                   *
  *                         Version 2.2                            *
  ******************************************************************
  
  Analysis begun Tue Mar  7 12:01:45 2023

   
  Node Results at 0:00:00 hrs:
  ----------------------------------------------
                     Demand      Head  Pressure
  Node                 m3/h         m         m
  ----------------------------------------------
  1                   96.35    190.54     30.54
  2                   96.35    203.19     53.19
  3                  260.15    178.31     28.31
  4                  115.62    199.24     44.24
  5                  192.70    186.85     26.85
  6                  317.96    195.43     30.43
  7                -1079.13    210.00      0.00  Reservoir
   
   
  Link Results at 0:00:00 hrs:
  ------------------------------------
                       Flow     State
  Link                 m3/h          
  ------------------------------------
  1                  178.66      open
  2                   82.31      open
  3                  804.12      open
  4                  110.02      open
  5                   67.81      open
  6                  578.47      open
  7                  260.52      open
  8                 1079.13      open
   
   
  Node Results at 0:05:00 hrs:
  ----------------------------------------------
                     Demand      Head  Pressure
  Node                 m3/h         m         m
  ----------------------------------------------
  1                   87.57    193.69     33.69
  2                   87.57    204.29     54.29
  3                  236.43    183.45     33.45
  4                  105.08    200.99     45.99
  5                  175.13    190.61     30.61
  6                  288.97    197.79     32.79
  7                 -980.74    210.00      0.00  Reservoir
   
   
  Link Results at 0:05:00 hrs:
  ------------------------------------
                       Flow     State
  Link                 m3/h          
  ------------------------------------
  1                  162.37      open
  2                   74.81      open
  3                  730.81      open
  4                   99.99      open
  5                   61.63      open
  6                  525.73      open
  7                  236.76      open
  8                  980.74      open
   
   
  Node Results at 0:10:00 hrs:
  ----------------------------------------------
                     Demand      Head  Pressure
  Node                 m3/h         m         m
  ----------------------------------------------
  1                   85.89    194.27     34.27
  2                   85.89    204.49     54.49
  3                  231.91    184.38     34.38
  4                  103.07    201.30     46.30
  5                  171.78    191.29     31.29
  6                  283.44    198.22     33.22
  7                 -961.99    210.00      0.00  Reservoir
   
   
  Link Results at 0:10:00 hrs:
  ------------------------------------
                       Flow     State
  Link                 m3/h          
  ------------------------------------
  1                  159.27      open
  2                   73.38      open
  3                  716.83      open
  4                   98.08      open
  5                   60.45      open
  6                  515.68      open
  7                  232.24      open
  8                  961.99      open
   
   
  Node Results at 0:15:00 hrs:
  ----------------------------------------------
                     Demand      Head  Pressure
  Node                 m3/h         m         m
  ----------------------------------------------
  1                   86.51    194.06     34.06
  2                   86.51    204.42     54.42
  3                  233.58    184.04     34.04
  4                  103.81    201.19     46.19
  5                  173.02    191.04     31.04
  6                  285.49    198.07     33.07
  7                 -968.92    210.00      0.00  Reservoir
   
   
  Link Results at 0:15:00 hrs:
  ------------------------------------
                       Flow     State
  Link                 m3/h          
  ------------------------------------
  1                  160.41      open
  2                   73.90      open
  3                  721.99      open
  4                   98.79      open
  5                   60.89      open
  6                  519.40      open
  7                  233.91      open
  8                  968.92      open
   
   
  Node Results at 0:20:00 hrs:
  ----------------------------------------------
                     Demand      Head  Pressure
  Node                 m3/h         m         m
  ----------------------------------------------
  1                   82.09    195.53     35.53
  2                   82.09    204.94     54.94
  3                  221.66    186.44     36.44
  4                   98.51    202.00     47.00
  5                  164.19    192.79     32.79
  6                  270.91    199.17     34.17
  7                 -919.46    210.00      0.00  Reservoir
   
   
  Link Results at 0:20:00 hrs:
  ------------------------------------
                       Flow     State
  Link                 m3/h          
  ------------------------------------
  1                  152.23      open
  2                   70.13      open
  3                  685.14      open
  4                   93.74      open
  5                   57.78      open
  6                  492.88      open
  7                  221.97      open
  8                  919.46      open
   
   
  Node Results at 0:25:00 hrs:
  ----------------------------------------------
                     Demand      Head  Pressure
  Node                 m3/h         m         m
  ----------------------------------------------
  1                   70.75    199.02     39.02
  2                   70.75    206.16     56.16
  3                  191.02    192.11     42.11
  4                   84.90    203.93     48.93
  5                  141.50    196.93     36.93
  6                  233.47    201.78     36.78
  7                 -792.37    210.00      0.00  Reservoir
   
   
  Link Results at 0:25:00 hrs:
  ------------------------------------
                       Flow     State
  Link                 m3/h          
  ------------------------------------
  1                  131.19      open
  2                   60.44      open
  3                  590.44      open
  4                   80.79      open
  5                   49.79      open
  6                  424.76      open
  7                  191.29      open
  8                  792.37      open
   
   
  Node Results at 0:30:00 hrs:
  ----------------------------------------------
                     Demand      Head  Pressure
  Node                 m3/h         m         m
  ----------------------------------------------
  1                   73.80    198.12     38.12
  2                   73.80    205.84     55.84
  3                  199.25    190.66     40.66
  4                   88.55    203.43     48.43
  5                  147.59    195.87     35.87
  6                  243.52    201.11     36.11
  7                 -826.50    210.00      0.00  Reservoir
   
   
  Link Results at 0:30:00 hrs:
  ------------------------------------
                       Flow     State
  Link                 m3/h          
  ------------------------------------
  1                  136.84      open
  2                   63.04      open
  3                  615.87      open
  4                   84.27      open
  5                   51.94      open
  6                  443.05      open
  7                  199.53      open
  8                  826.50      open
   
   
  Node Results at 0:35:00 hrs:
  ----------------------------------------------
                     Demand      Head  Pressure
  Node                 m3/h         m         m
  ----------------------------------------------
  1                   68.36    199.69     39.69
  2                   68.36    206.39     56.39
  3                  184.58    193.21     43.21
  4                   82.03    204.30     49.30
  5                  136.72    197.74     37.74
  6                  225.59    202.28     37.28
  7                 -765.65    210.00      0.00  Reservoir
   
   
  Link Results at 0:35:00 hrs:
  ------------------------------------
                       Flow     State
  Link                 m3/h          
  ------------------------------------
  1                  126.76      open
  2                   58.40      open
  3                  570.52      open
  4                   78.06      open
  5                   48.11      open
  6                  410.43      open
  7                  184.84      open
  8                  765.65      open
   
   
  Node Results at 0:40:00 hrs:
  ----------------------------------------------
                     Demand      Head  Pressure
  Node                 m3/h         m         m
  ----------------------------------------------
  1                   66.39    200.24     40.24
  2                   66.39    206.58     56.58
  3                  179.26    194.10     44.10
  4                   79.67    204.60     49.60
  5                  132.78    198.39     38.39
  6                  219.09    202.69     37.69
  7                 -743.58    210.00      0.00  Reservoir
   
   
  Link Results at 0:40:00 hrs:
  ------------------------------------
                       Flow     State
  Link                 m3/h          
  ------------------------------------
  1                  123.11      open
  2                   56.72      open
  3                  554.08      open
  4                   75.81      open
  5                   46.73      open
  6                  398.60      open
  7                  179.51      open
  8                  743.58      open
   
   
  Node Results at 0:45:00 hrs:
  ----------------------------------------------
                     Demand      Head  Pressure
  Node                 m3/h         m         m
  ----------------------------------------------
  1                   65.81    200.39     40.39
  2                   65.81    206.64     56.64
  3                  177.68    194.36     44.36
  4                   78.97    204.69     49.69
  5                  131.62    198.57     38.57
  6                  217.17    202.81     37.81
  7                 -737.06    210.00      0.00  Reservoir
   
   
  Link Results at 0:45:00 hrs:
  ------------------------------------
                       Flow     State
  Link                 m3/h          
  ------------------------------------
  1                  122.03      open
  2                   56.22      open
  3                  549.23      open
  4                   75.15      open
  5                   46.32      open
  6                  395.11      open
  7                  177.94      open
  8                  737.06      open
   
   
  Node Results at 0:50:00 hrs:
  ----------------------------------------------
                     Demand      Head  Pressure
  Node                 m3/h         m         m
  ----------------------------------------------
  1                   63.37    201.04     41.04
  2                   63.37    206.87     56.87
  3                  171.09    195.41     45.41
  4                   76.04    205.05     50.05
  5                  126.73    199.35     39.35
  6                  209.11    203.29     38.29
  7                 -709.70    210.00      0.00  Reservoir
   
   
  Link Results at 0:50:00 hrs:
  ------------------------------------
                       Flow     State
  Link                 m3/h          
  ------------------------------------
  1                  117.50      open
  2                   54.13      open
  3                  528.84      open
  4                   72.36      open
  5                   44.60      open
  6                  380.44      open
  7                  171.33      open
  8                  709.70      open
   
   
  Node Results at 0:55:00 hrs:
  ----------------------------------------------
                     Demand      Head  Pressure
  Node                 m3/h         m         m
  ----------------------------------------------
  1                   65.00    200.61     40.61
  2                   65.00    206.71     56.71
  3                  175.50    194.71     44.71
  4                   78.00    204.81     49.81
  5                  130.00    198.83     38.83
  6                  214.50    202.97     37.97
  7                 -727.99    210.00      0.00  Reservoir
   
   
  Link Results at 0:55:00 hrs:
  ------------------------------------
                       Flow     State
  Link                 m3/h          
  ------------------------------------
  1                  120.53      open
  2                   55.53      open
  3                  542.46      open
  4                   74.22      open
  5                   45.75      open
  6                  390.24      open
  7                  175.75      open
  8                  727.99      open
   
   
  Node Results at 1:00:00 hrs:
  ----------------------------------------------
                     Demand      Head  Pressure
  Node                 m3/h         m         m
  ----------------------------------------------
  1                   61.83    201.44     41.44
  2                   61.83    207.01     57.01
  3                  166.93    196.06     46.06
  4                   74.19    205.27     50.27
  5                  123.65    199.82     39.82
  6                  204.03    203.59     38.59
  7                 -692.46    210.00      0.00  Reservoir
   
   
  Link Results at 1:00:00 hrs:
  ------------------------------------
                       Flow     State
  Link                 m3/h          
  ------------------------------------
  1                  114.64      open
  2                   52.82      open
  3                  515.99      open
  4                   70.60      open
  5                   43.52      open
  6                  371.20      open
  7                  167.17      open
  8                  692.46      open
   
   
  Node Results at 1:05:00 hrs:
  ----------------------------------------------
                     Demand      Head  Pressure
  Node                 m3/h         m         m
  ----------------------------------------------
  1                   59.00    202.15     42.15
  2                   59.00    207.25     57.25
  3                  159.30    197.22     47.22
  4                   70.80    205.66     50.66
  5                  118.00    200.67     40.67
  6                  194.70    204.13     39.13
  7                 -660.79    210.00      0.00  Reservoir
   
   
  Link Results at 1:05:00 hrs:
  ------------------------------------
                       Flow     State
  Link                 m3/h          
  ------------------------------------
  1                  109.40      open
  2                   50.40      open
  3                  492.39      open
  4                   67.37      open
  5                   41.53      open
  6                  354.22      open
  7                  159.52      open
  8                  660.79      open
   
   
  Node Results at 1:10:00 hrs:
  ----------------------------------------------
                     Demand      Head  Pressure
  Node                 m3/h         m         m
  ----------------------------------------------
  1                   58.57    202.26     42.26
  2                   58.57    207.29     57.29
  3                  158.15    197.39     47.39
  4                   70.29    205.72     50.72
  5                  117.15    200.79     40.79
  6                  193.29    204.20     39.20
  7                 -656.03    210.00      0.00  Reservoir
   
   
  Link Results at 1:10:00 hrs:
  ------------------------------------
                       Flow     State
  Link                 m3/h          
  ------------------------------------
  1                  108.61      open
  2                   50.04      open
  3                  488.84      open
  4                   66.89      open
  5                   41.23      open
  6                  351.67      open
  7                  158.37      open
  8                  656.03      open
   
   
  Node Results at 1:15:00 hrs:
  ----------------------------------------------
                     Demand      Head  Pressure
  Node                 m3/h         m         m
  ----------------------------------------------
  1                   57.26    202.58     42.58
  2                   57.26    207.40     57.40
  3                  154.60    197.91     47.91
  4                   68.71    205.90     50.90
  5                  114.52    201.17     41.17
  6                  188.95    204.44     39.44
  7                 -641.29    210.00      0.00  Reservoir
   
   
  Link Results at 1:15:00 hrs:
  ------------------------------------
                       Flow     State
  Link                 m3/h          
  ------------------------------------
  1                  106.17      open
  2                   48.91      open
  3                  477.86      open
  4                   65.38      open
  5                   40.30      open
  6                  343.77      open
  7                  154.82      open
  8                  641.29      open
   
   
  Node Results at 1:20:00 hrs:
  ----------------------------------------------
                     Demand      Head  Pressure
  Node                 m3/h         m         m
  ----------------------------------------------
  1                   58.88    202.18     42.18
  2                   58.88    207.26     57.26
  3                  158.97    197.27     47.27
  4                   70.65    205.68     50.68
  5                  117.75    200.70     40.70
  6                  194.29    204.15     39.15
  7                 -659.41    210.00      0.00  Reservoir
   
   
  Link Results at 1:20:00 hrs:
  ------------------------------------
                       Flow     State
  Link                 m3/h          
  ------------------------------------
  1                  109.17      open
  2                   50.30      open
  3                  491.36      open
  4                   67.23      open
  5                   41.44      open
  6                  353.48      open
  7                  159.19      open
  8                  659.41      open
   
   
  Node Results at 1:25:00 hrs:
  ----------------------------------------------
                     Demand      Head  Pressure
  Node                 m3/h         m         m
  ----------------------------------------------
  1                   54.25    203.28     43.28
  2                   54.25    207.65     57.65
  3                  146.46    199.06     49.06
  4                   65.10    206.29     51.29
  5                  108.49    202.01     42.01
  6                  179.01    204.97     39.97
  7                 -607.55    210.00      0.00  Reservoir
   
   
  Link Results at 1:25:00 hrs:
  ------------------------------------
                       Flow     State
  Link                 m3/h          
  ------------------------------------
  1                  100.59      open
  2                   46.34      open
  3                  452.72      open
  4                   61.94      open
  5                   38.18      open
  6                  325.68      open
  7                  146.67      open
  8                  607.55      open
   
   
  Node Results at 1:30:00 hrs:
  ----------------------------------------------
                     Demand      Head  Pressure
  Node                 m3/h         m         m
  ----------------------------------------------
  1                   54.58    203.21     43.21
  2                   54.58    207.62     57.62
  3                  147.37    198.94     48.94
  4                   65.50    206.24     51.24
  5                  109.16    201.92     41.92
  6                  180.12    204.91     39.91
  7                 -611.32    210.00      0.00  Reservoir
   
   
  Link Results at 1:30:00 hrs:
  ------------------------------------
                       Flow     State
  Link                 m3/h          
  ------------------------------------
  1                  101.21      open
  2                   46.63      open
  3                  455.53      open
  4                   62.33      open
  5                   38.42      open
  6                  327.70      open
  7                  147.58      open
  8                  611.32      open
   
   
  Node Results at 1:35:00 hrs:
  ----------------------------------------------
                     Demand      Head  Pressure
  Node                 m3/h         m         m
  ----------------------------------------------
  1                   51.36    203.93     43.93
  2                   51.36    207.88     57.88
  3                  138.68    200.11     50.11
  4                   61.64    206.64     51.64
  5                  102.73    202.78     42.78
  6                  169.50    205.46     40.46
  7                 -575.27    210.00      0.00  Reservoir
   
   
  Link Results at 1:35:00 hrs:
  ------------------------------------
                       Flow     State
  Link                 m3/h          
  ------------------------------------
  1                   95.24      open
  2                   43.88      open
  3                  428.66      open
  4                   58.65      open
  5                   36.15      open
  6                  308.37      open
  7                  138.88      open
  8                  575.27      open
   
   
  Node Results at 1:40:00 hrs:
  ----------------------------------------------
                     Demand      Head  Pressure
  Node                 m3/h         m         m
  ----------------------------------------------
  1                   47.14    204.82     44.82
  2                   47.14    208.19     58.19
  3                  127.28    201.57     51.57
  4                   56.57    207.14     52.14
  5                   94.28    203.84     43.84
  6                  155.56    206.12     41.12
  7                 -527.96    210.00      0.00  Reservoir
   
   
  Link Results at 1:40:00 hrs:
  ------------------------------------
                       Flow     State
  Link                 m3/h          
  ------------------------------------
  1                   87.41      open
  2                   40.27      open
  3                  393.41      open
  4                   53.83      open
  5                   33.18      open
  6                  283.02      open
  7                  127.46      open
  8                  527.96      open
   
   
  Node Results at 1:45:00 hrs:
  ----------------------------------------------
                     Demand      Head  Pressure
  Node                 m3/h         m         m
  ----------------------------------------------
  1                   53.21    203.52     43.52
  2                   53.21    207.73     57.73
  3                  143.67    199.45     49.45
  4                   63.85    206.42     51.42
  5                  106.42    202.29     42.29
  6                  175.60    205.15     40.15
  7                 -595.97    210.00      0.00  Reservoir
   
   
  Link Results at 1:45:00 hrs:
  ------------------------------------
                       Flow     State
  Link                 m3/h          
  ------------------------------------
  1                   98.67      open
  2                   45.46      open
  3                  444.09      open
  4                   60.76      open
  5                   37.45      open
  6                  319.47      open
  7                  143.88      open
  8                  595.97      open
   
   
  Node Results at 1:50:00 hrs:
  ----------------------------------------------
                     Demand      Head  Pressure
  Node                 m3/h         m         m
  ----------------------------------------------
  1                   53.00    203.56     43.56
  2                   53.00    207.75     57.75
  3                  143.11    199.52     49.52
  4                   63.61    206.44     51.44
  5                  106.01    202.35     42.35
  6                  174.91    205.18     40.18
  7                 -593.65    210.00      0.00  Reservoir
   
   
  Link Results at 1:50:00 hrs:
  ------------------------------------
                       Flow     State
  Link                 m3/h          
  ------------------------------------
  1                   98.29      open
  2                   45.28      open
  3                  442.36      open
  4                   60.53      open
  5                   37.31      open
  6                  318.23      open
  7                  143.32      open
  8                  593.65      open
   
   
  Node Results at 1:55:00 hrs:
  ----------------------------------------------
                     Demand      Head  Pressure
  Node                 m3/h         m         m
  ----------------------------------------------
  1                   49.12    204.41     44.41
  2                   49.12    208.04     58.04
  3                  132.61    200.90     50.90
  4                   58.94    206.91     51.91
  5                   98.23    203.35     43.35
  6                  162.08    205.82     40.82
  7                 -550.10    210.00      0.00  Reservoir
   
   
  Link Results at 1:55:00 hrs:
  ------------------------------------
                       Flow     State
  Link                 m3/h          
  ------------------------------------
  1                   91.07      open
  2                   41.96      open
  3                  409.91      open
  4                   56.09      open
  5                   34.57      open
  6                  294.88      open
  7                  132.80      open
  8                  550.10      open
   
   
  Node Results at 2:00:00 hrs:
  ----------------------------------------------
                     Demand      Head  Pressure
  Node                 m3/h         m         m
  ----------------------------------------------
  1                   54.54    203.22     43.22
  2                   54.54    207.63     57.63
  3                  147.26    198.95     48.95
  4                   65.45    206.25     51.25
  5                  109.08    201.93     41.93
  6                  179.98    204.92     39.92
  7                 -610.84    210.00      0.00  Reservoir
   
   
  Link Results at 2:00:00 hrs:
  ------------------------------------
                       Flow     State
  Link                 m3/h          
  ------------------------------------
  1                  101.13      open
  2                   46.59      open
  3                  455.17      open
  4                   62.28      open
  5                   38.39      open
  6                  327.45      open
  7                  147.47      open
  8                  610.84      open
   
   
  Node Results at 2:05:00 hrs:
  ----------------------------------------------
                     Demand      Head  Pressure
  Node                 m3/h         m         m
  ----------------------------------------------
  1                   46.49    204.95     44.95
  2                   46.49    208.23     58.23
  3                  125.53    201.78     51.78
  4                   55.79    207.21     52.21
  5                   92.99    204.00     44.00
  6                  153.43    206.22     41.22
  7                 -520.73    210.00      0.00  Reservoir
   
   
  Link Results at 2:05:00 hrs:
  ------------------------------------
                       Flow     State
  Link                 m3/h          
  ------------------------------------
  1                   86.21      open
  2                   39.72      open
  3                  388.02      open
  4                   53.09      open
  5                   32.72      open
  6                  279.14      open
  7                  125.71      open
  8                  520.73      open
   
   
  Node Results at 2:10:00 hrs:
  ----------------------------------------------
                     Demand      Head  Pressure
  Node                 m3/h         m         m
  ----------------------------------------------
  1                   48.80    204.48     44.48
  2                   48.80    208.07     58.07
  3                  131.75    201.01     51.01
  4                   58.56    206.95     51.95
  5                   97.60    203.43     43.43
  6                  161.03    205.87     40.87
  7                 -546.54    210.00      0.00  Reservoir
   
   
  Link Results at 2:10:00 hrs:
  ------------------------------------
                       Flow     State
  Link                 m3/h          
  ------------------------------------
  1                   90.49      open
  2                   41.69      open
  3                  407.26      open
  4                   55.72      open
  5                   34.35      open
  6                  292.98      open
  7                  131.94      open
  8                  546.54      open
   
   
  Node Results at 2:15:00 hrs:
  ----------------------------------------------
                     Demand      Head  Pressure
  Node                 m3/h         m         m
  ----------------------------------------------
  1                   47.67    204.71     44.71
  2                   47.67    208.15     58.15
  3                  128.70    201.39     51.39
  4                   57.20    207.08     52.08
  5                   95.33    203.71     43.71
  6                  157.30    206.04     41.04
  7                 -533.87    210.00      0.00  Reservoir
   
   
  Link Results at 2:15:00 hrs:
  ------------------------------------
                       Flow     State
  Link                 m3/h          
  ------------------------------------
  1                   88.39      open
  2                   40.72      open
  3                  397.81      open
  4                   54.43      open
  5                   33.55      open
  6                  286.18      open
  7                  128.88      open
  8                  533.87      open
   
   
  Node Results at 2:20:00 hrs:
  ----------------------------------------------
                     Demand      Head  Pressure
  Node                 m3/h         m         m
  ----------------------------------------------
  1                   50.21    204.18     44.18
  2                   50.21    207.96     57.96
  3                  135.58    200.52     50.52
  4                   60.26    206.78     51.78
  5                  100.43    203.08     43.08
  6                  165.71    205.64     40.64
  7                 -562.40    210.00      0.00  Reservoir
   
   
  Link Results at 2:20:00 hrs:
  ------------------------------------
                       Flow     State
  Link                 m3/h          
  ------------------------------------
  1                   93.11      open
  2                   42.90      open
  3                  419.08      open
  4                   57.34      open
  5                   35.34      open
  6                  301.48      open
  7                  135.77      open
  8                  562.40      open
   
   
  Node Results at 2:25:00 hrs:
  ----------------------------------------------
                     Demand      Head  Pressure
  Node                 m3/h         m         m
  ----------------------------------------------
  1                   49.30    204.37     44.37
  2                   49.30    208.03     58.03
  3                  133.12    200.84     50.84
  4                   59.16    206.89     51.89
  5                   98.61    203.31     43.31
  6                  162.70    205.79     40.79
  7                 -552.19    210.00      0.00  Reservoir
   
   
  Link Results at 2:25:00 hrs:
  ------------------------------------
                       Flow     State
  Link                 m3/h          
  ------------------------------------
  1                   91.42      open
  2                   42.12      open
  3                  411.47      open
  4                   56.30      open
  5                   34.70      open
  6                  296.01      open
  7                  133.31      open
  8                  552.19      open
   
   
  Node Results at 2:30:00 hrs:
  ----------------------------------------------
                     Demand      Head  Pressure
  Node                 m3/h         m         m
  ----------------------------------------------
  1                   46.06    205.04     45.04
  2                   46.06    208.26     58.26
  3                  124.37    201.92     51.92
  4                   55.28    207.26     52.26
  5                   92.13    204.10     44.10
  6                  152.01    206.29     41.29
  7                 -515.91    210.00      0.00  Reservoir
   
   
  Link Results at 2:30:00 hrs:
  ------------------------------------
                       Flow     State
  Link                 m3/h          
  ------------------------------------
  1                   85.41      open
  2                   39.35      open
  3                  384.43      open
  4                   52.60      open
  5                   32.42      open
  6                  276.56      open
  7                  124.55      open
  8                  515.91      open
   
   
  Node Results at 2:35:00 hrs:
  ----------------------------------------------
                     Demand      Head  Pressure
  Node                 m3/h         m         m
  ----------------------------------------------
  1                   45.63    205.12     45.12
  2                   45.63    208.29     58.29
  3                  123.20    202.06     52.06
  4                   54.76    207.30     52.30
  5                   91.26    204.20     44.20
  6                  150.58    206.35     41.35
  7                 -511.05    210.00      0.00  Reservoir
   
   
  Link Results at 2:35:00 hrs:
  ------------------------------------
                       Flow     State
  Link                 m3/h          
  ------------------------------------
  1                   84.61      open
  2                   38.98      open
  3                  380.81      open
  4                   52.10      open
  5                   32.12      open
  6                  273.95      open
  7                  123.37      open
  8                  511.05      open
   
   
  Node Results at 2:40:00 hrs:
  ----------------------------------------------
                     Demand      Head  Pressure
  Node                 m3/h         m         m
  ----------------------------------------------
  1                   42.51    205.72     45.72
  2                   42.51    208.50     58.50
  3                  114.77    203.04     53.04
  4                   51.01    207.64     52.64
  5                   85.01    204.91     44.91
  6                  140.27    206.80     41.80
  7                 -476.08    210.00      0.00  Reservoir
   
   
  Link Results at 2:40:00 hrs:
  ------------------------------------
                       Flow     State
  Link                 m3/h          
  ------------------------------------
  1                   78.82      open
  2                   36.31      open
  3                  354.75      open
  4                   48.54      open
  5                   29.92      open
  6                  255.21      open
  7                  114.93      open
  8                  476.08      open
   
   
  Node Results at 2:45:00 hrs:
  ----------------------------------------------
                     Demand      Head  Pressure
  Node                 m3/h         m         m
  ----------------------------------------------
  1                   39.72    206.23     46.23
  2                   39.72    208.68     58.68
  3                  107.26    203.86     53.86
  4                   47.67    207.91     52.91
  5                   79.45    205.51     45.51
  6                  131.09    207.18     42.18
  7                 -444.92    210.00      0.00  Reservoir
   
   
  Link Results at 2:45:00 hrs:
  ------------------------------------
                       Flow     State
  Link                 m3/h          
  ------------------------------------
  1                   73.66      open
  2                   33.94      open
  3                  331.53      open
  4                   45.36      open
  5                   27.96      open
  6                  238.50      open
  7                  107.41      open
  8                  444.92      open
   
   
  Node Results at 2:50:00 hrs:
  ----------------------------------------------
                     Demand      Head  Pressure
  Node                 m3/h         m         m
  ----------------------------------------------
  1                   41.57    205.90     45.90
  2                   41.57    208.56     58.56
  3                  112.24    203.32     53.32
  4                   49.88    207.73     52.73
  5                   83.14    205.12     45.12
  6                  137.18    206.93     41.93
  7                 -465.59    210.00      0.00  Reservoir
   
   
  Link Results at 2:50:00 hrs:
  ------------------------------------
                       Flow     State
  Link                 m3/h          
  ------------------------------------
  1                   77.08      open
  2                   35.51      open
  3                  346.94      open
  4                   47.47      open
  5                   29.26      open
  6                  249.58      open
  7                  112.40      open
  8                  465.59      open
   
   
  Node Results at 2:55:00 hrs:
  ----------------------------------------------
                     Demand      Head  Pressure
  Node                 m3/h         m         m
  ----------------------------------------------
  1                   41.37    205.93     45.93
  2                   41.37    208.58     58.58
  3                  111.69    203.38     53.38
  4                   49.64    207.75     52.75
  5                   82.74    205.16     45.16
  6                  136.52    206.96     41.96
  7                 -463.32    210.00      0.00  Reservoir
   
   
  Link Results at 2:55:00 hrs:
  ------------------------------------
                       Flow     State
  Link                 m3/h          
  ------------------------------------
  1                   76.71      open
  2                   35.34      open
  3                  345.25      open
  4                   47.24      open
  5                   29.12      open
  6                  248.37      open
  7                  111.85      open
  8                  463.32      open
   
   
  Node Results at 3:00:00 hrs:
  ----------------------------------------------
                     Demand      Head  Pressure
  Node                 m3/h         m         m
  ----------------------------------------------
  1                   41.97    205.82     45.82
  2                   41.97    208.54     58.54
  3                  113.32    203.20     53.20
  4                   50.36    207.69     52.69
  5                   83.94    205.03     45.03
  6                  138.50    206.87     41.87
  7                 -470.05    210.00      0.00  Reservoir
   
   
  Link Results at 3:00:00 hrs:
  ------------------------------------
                       Flow     State
  Link                 m3/h          
  ------------------------------------
  1                   77.82      open
  2                   35.85      open
  3                  350.26      open
  4                   47.92      open
  5                   29.54      open
  6                  251.97      open
  7                  113.48      open
  8                  470.05      open
   
   
  Node Results at 3:05:00 hrs:
  ----------------------------------------------
                     Demand      Head  Pressure
  Node                 m3/h         m         m
  ----------------------------------------------
  1                   40.69    206.06     46.06
  2                   40.69    208.62     58.62
  3                  109.87    203.58     53.58
  4                   48.83    207.82     52.82
  5                   81.39    205.31     45.31
  6                  134.29    207.05     42.05
  7                 -455.76    210.00      0.00  Reservoir
   
   
  Link Results at 3:05:00 hrs:
  ------------------------------------
                       Flow     State
  Link                 m3/h          
  ------------------------------------
  1                   75.46      open
  2                   34.76      open
  3                  339.61      open
  4                   46.47      open
  5                   28.64      open
  6                  244.31      open
  7                  110.03      open
  8                  455.76      open
   
   
  Node Results at 3:10:00 hrs:
  ----------------------------------------------
                     Demand      Head  Pressure
  Node                 m3/h         m         m
  ----------------------------------------------
  1                   37.03    206.69     46.69
  2                   37.03    208.84     58.84
  3                   99.98    204.61     54.61
  4                   44.44    208.17     53.17
  5                   74.06    206.06     46.06
  6                  122.20    207.52     42.52
  7                 -414.73    210.00      0.00  Reservoir
   
   
  Link Results at 3:10:00 hrs:
  ------------------------------------
                       Flow     State
  Link                 m3/h          
  ------------------------------------
  1                   68.66      open
  2                   31.63      open
  3                  309.04      open
  4                   42.28      open
  5                   26.06      open
  6                  222.32      open
  7                  100.12      open
  8                  414.73      open
   
   
  Node Results at 3:15:00 hrs:
  ----------------------------------------------
                     Demand      Head  Pressure
  Node                 m3/h         m         m
  ----------------------------------------------
  1                   35.95    206.86     46.86
  2                   35.95    208.90     58.90
  3                   97.07    204.89     54.89
  4                   43.14    208.27     53.27
  5                   71.90    206.27     46.27
  6                  118.64    207.65     42.65
  7                 -402.64    210.00      0.00  Reservoir
   
   
  Link Results at 3:15:00 hrs:
  ------------------------------------
                       Flow     State
  Link                 m3/h          
  ------------------------------------
  1                   66.66      open
  2                   30.71      open
  3                  300.03      open
  4                   41.05      open
  5                   25.30      open
  6                  215.84      open
  7                   97.20      open
  8                  402.64      open
   
   
  Node Results at 3:20:00 hrs:
  ----------------------------------------------
                     Demand      Head  Pressure
  Node                 m3/h         m         m
  ----------------------------------------------
  1                   33.71    207.22     47.22
  2                   33.71    209.03     59.03
  3                   91.03    205.47     55.47
  4                   40.46    208.46     53.46
  5                   67.43    206.69     46.69
  6                  111.26    207.92     42.92
  7                 -377.60    210.00      0.00  Reservoir
   
   
  Link Results at 3:20:00 hrs:
  ------------------------------------
                       Flow     State
  Link                 m3/h          
  ------------------------------------
  1                   62.51      open
  2                   28.80      open
  3                  281.37      open
  4                   38.50      open
  5                   23.73      open
  6                  202.41      open
  7                   91.16      open
  8                  377.60      open
   
   
  Node Results at 3:25:00 hrs:
  ----------------------------------------------
                     Demand      Head  Pressure
  Node                 m3/h         m         m
  ----------------------------------------------
  1                   32.11    207.46     47.46
  2                   32.11    209.11     59.11
  3                   86.69    205.86     55.86
  4                   38.53    208.59     53.59
  5                   64.22    206.98     46.98
  6                  105.96    208.10     43.10
  7                 -359.61    210.00      0.00  Reservoir
   
   
  Link Results at 3:25:00 hrs:
  ------------------------------------
                       Flow     State
  Link                 m3/h          
  ------------------------------------
  1                   59.54      open
  2                   27.43      open
  3                  267.96      open
  4                   36.66      open
  5                   22.60      open
  6                  192.77      open
  7                   86.81      open
  8                  359.61      open
   
   
  Node Results at 3:30:00 hrs:
  ----------------------------------------------
                     Demand      Head  Pressure
  Node                 m3/h         m         m
  ----------------------------------------------
  1                   30.72    207.66     47.66
  2                   30.72    209.18     59.18
  3                   82.96    206.18     56.18
  4                   36.87    208.70     53.70
  5                   61.45    207.21     47.21
  6                  101.39    208.25     43.25
  7                 -344.12    210.00      0.00  Reservoir
   
   
  Link Results at 3:30:00 hrs:
  ------------------------------------
                       Flow     State
  Link                 m3/h          
  ------------------------------------
  1                   56.97      open
  2                   26.25      open
  3                  256.42      open
  4                   35.08      open
  5                   21.62      open
  6                  184.46      open
  7                   83.07      open
  8                  344.12      open
   
   
  Node Results at 3:35:00 hrs:
  ----------------------------------------------
                     Demand      Head  Pressure
  Node                 m3/h         m         m
  ----------------------------------------------
  1                   34.52    207.09     47.09
  2                   34.52    208.98     58.98
  3                   93.20    205.26     55.26
  4                   41.42    208.39     53.39
  5                   69.04    206.54     46.54
  6                  113.92    207.82     42.82
  7                 -386.63    210.00      0.00  Reservoir
   
   
  Link Results at 3:35:00 hrs:
  ------------------------------------
                       Flow     State
  Link                 m3/h          
  ------------------------------------
  1                   64.01      open
  2                   29.49      open
  3                  288.09      open
  4                   39.42      open
  5                   24.30      open
  6                  207.25      open
  7                   93.34      open
  8                  386.63      open
   
   
  Node Results at 3:40:00 hrs:
  ----------------------------------------------
                     Demand      Head  Pressure
  Node                 m3/h         m         m
  ----------------------------------------------
  1                   30.57    207.68     47.68
  2                   30.57    209.19     59.19
  3                   82.55    206.22     56.22
  4                   36.69    208.72     53.72
  5                   61.15    207.24     47.24
  6                  100.89    208.26     43.26
  7                 -342.43    210.00      0.00  Reservoir
   
   
  Link Results at 3:40:00 hrs:
  ------------------------------------
                       Flow     State
  Link                 m3/h          
  ------------------------------------
  1                   56.69      open
  2                   26.12      open
  3                  255.16      open
  4                   34.91      open
  5                   21.52      open
  6                  183.56      open
  7                   82.67      open
  8                  342.43      open
   
   
  Node Results at 3:45:00 hrs:
  ----------------------------------------------
                     Demand      Head  Pressure
  Node                 m3/h         m         m
  ----------------------------------------------
  1                   30.04    207.75     47.75
  2                   30.04    209.21     59.21
  3                   81.10    206.34     56.34
  4                   36.04    208.76     53.76
  5                   60.07    207.33     47.33
  6                   99.12    208.32     43.32
  7                 -336.41    210.00      0.00  Reservoir
   
   
  Link Results at 3:45:00 hrs:
  ------------------------------------
                       Flow     State
  Link                 m3/h          
  ------------------------------------
  1                   55.70      open
  2                   25.66      open
  3                  250.68      open
  4                   34.30      open
  5                   21.14      open
  6                  180.34      open
  7                   81.21      open
  8                  336.41      open
   
   
  Node Results at 3:50:00 hrs:
  ----------------------------------------------
                     Demand      Head  Pressure
  Node                 m3/h         m         m
  ----------------------------------------------
  1                   28.63    207.94     47.94
  2                   28.63    209.28     59.28
  3                   77.29    206.65     56.65
  4                   34.35    208.86     53.86
  5                   57.26    207.55     47.55
  6                   94.47    208.46     43.46
  7                 -320.63    210.00      0.00  Reservoir
   
   
  Link Results at 3:50:00 hrs:
  ------------------------------------
                       Flow     State
  Link                 m3/h          
  ------------------------------------
  1                   53.08      open
  2                   24.46      open
  3                  238.92      open
  4                   32.69      open
  5                   20.15      open
  6                  171.88      open
  7                   77.40      open
  8                  320.63      open
   
   
  Node Results at 3:55:00 hrs:
  ----------------------------------------------
                     Demand      Head  Pressure
  Node                 m3/h         m         m
  ----------------------------------------------
  1                   30.87    207.64     47.64
  2                   30.87    209.17     59.17
  3                   83.34    206.15     56.15
  4                   37.04    208.69     53.69
  5                   61.74    207.19     47.19
  6                  101.86    208.23     43.23
  7                 -345.72    210.00      0.00  Reservoir
   
   
  Link Results at 3:55:00 hrs:
  ------------------------------------
                       Flow     State
  Link                 m3/h          
  ------------------------------------
  1                   57.24      open
  2                   26.37      open
  3                  257.62      open
  4                   35.25      open
  5                   21.73      open
  6                  185.33      open
  7                   83.46      open
  8                  345.72      open
   
   
  Node Results at 4:00:00 hrs:
  ----------------------------------------------
                     Demand      Head  Pressure
  Node                 m3/h         m         m
  ----------------------------------------------
  1                   28.06    208.02     48.02
  2                   28.06    209.31     59.31
  3                   75.77    206.77     56.77
  4                   33.68    208.90     53.90
  5                   56.13    207.64     47.64
  6                   92.61    208.52     43.52
  7                 -314.31    210.00      0.00  Reservoir
   
   
  Link Results at 4:00:00 hrs:
  ------------------------------------
                       Flow     State
  Link                 m3/h          
  ------------------------------------
  1                   52.04      open
  2                   23.97      open
  3                  234.21      open
  4                   32.05      open
  5                   19.75      open
  6                  168.49      open
  7                   75.88      open
  8                  314.31      open
   
   
  Node Results at 4:05:00 hrs:
  ----------------------------------------------
                     Demand      Head  Pressure
  Node                 m3/h         m         m
  ----------------------------------------------
  1                   30.09    207.75     47.75
  2                   30.09    209.21     59.21
  3                   81.23    206.33     56.33
  4                   36.10    208.75     53.75
  5                   60.17    207.32     47.32
  6                   99.28    208.31     43.31
  7                 -336.96    210.00      0.00  Reservoir
   
   
  Link Results at 4:05:00 hrs:
  ------------------------------------
                       Flow     State
  Link                 m3/h          
  ------------------------------------
  1                   55.79      open
  2                   25.70      open
  3                  251.09      open
  4                   34.36      open
  5                   21.18      open
  6                  180.63      open
  7                   81.35      open
  8                  336.96      open
   
   
  Node Results at 4:10:00 hrs:
  ----------------------------------------------
                     Demand      Head  Pressure
  Node                 m3/h         m         m
  ----------------------------------------------
  1                   29.83    207.78     47.78
  2                   29.83    209.22     59.22
  3                   80.53    206.39     56.39
  4                   35.79    208.77     53.77
  5                   59.65    207.36     47.36
  6                   98.43    208.34     43.34
  7                 -334.07    210.00      0.00  Reservoir
   
   
  Link Results at 4:10:00 hrs:
  ------------------------------------
                       Flow     State
  Link                 m3/h          
  ------------------------------------
  1                   55.31      open
  2                   25.48      open
  3                  248.93      open
  4                   34.06      open
  5                   20.99      open
  6                  179.08      open
  7                   80.65      open
  8                  334.07      open
   
   
  Node Results at 4:15:00 hrs:
  ----------------------------------------------
                     Demand      Head  Pressure
  Node                 m3/h         m         m
  ----------------------------------------------
  1                   32.22    207.44     47.44
  2                   32.22    209.10     59.10
  3                   86.99    205.83     55.83
  4                   38.66    208.59     53.59
  5                   64.43    206.96     46.96
  6                  106.32    208.08     43.08
  7                 -360.83    210.00      0.00  Reservoir
   
   
  Link Results at 4:15:00 hrs:
  ------------------------------------
                       Flow     State
  Link                 m3/h          
  ------------------------------------
  1                   59.74      open
  2                   27.52      open
  3                  268.87      open
  4                   36.79      open
  5                   22.68      open
  6                  193.42      open
  7                   87.11      open
  8                  360.83      open
   
   
  Node Results at 4:20:00 hrs:
  ----------------------------------------------
                     Demand      Head  Pressure
  Node                 m3/h         m         m
  ----------------------------------------------
  1                   32.00    207.47     47.47
  2                   32.00    209.12     59.12
  3                   86.40    205.88     55.88
  4                   38.40    208.60     53.60
  5                   64.00    206.99     46.99
  6                  105.60    208.11     43.11
  7                 -358.41    210.00      0.00  Reservoir
   
   
  Link Results at 4:20:00 hrs:
  ------------------------------------
                       Flow     State
  Link                 m3/h          
  ------------------------------------
  1                   59.34      open
  2                   27.34      open
  3                  267.07      open
  4                   36.54      open
  5                   22.52      open
  6                  192.13      open
  7                   86.52      open
  8                  358.41      open
   
   
  Node Results at 4:25:00 hrs:
  ----------------------------------------------
                     Demand      Head  Pressure
  Node                 m3/h         m         m
  ----------------------------------------------
  1                   32.12    207.45     47.45
  2                   32.12    209.11     59.11
  3                   86.73    205.86     55.86
  4                   38.55    208.59     53.59
  5                   64.25    206.97     46.97
  6                  106.01    208.09     43.09
  7                 -359.78    210.00      0.00  Reservoir
   
   
  Link Results at 4:25:00 hrs:
  ------------------------------------
                       Flow     State
  Link                 m3/h          
  ------------------------------------
  1                   59.57      open
  2                   27.44      open
  3                  268.09      open
  4                   36.68      open
  5                   22.61      open
  6                  192.86      open
  7                   86.86      open
  8                  359.78      open
   
   
  Node Results at 4:30:00 hrs:
  ----------------------------------------------
                     Demand      Head  Pressure
  Node                 m3/h         m         m
  ----------------------------------------------
  1                   34.78    207.05     47.05
  2                   34.78    208.97     58.97
  3                   93.91    205.20     55.20
  4                   41.74    208.37     53.37
  5                   69.56    206.49     46.49
  6                  114.78    207.79     42.79
  7                 -389.55    210.00      0.00  Reservoir
   
   
  Link Results at 4:30:00 hrs:
  ------------------------------------
                       Flow     State
  Link                 m3/h          
  ------------------------------------
  1                   64.49      open
  2                   29.71      open
  3                  290.27      open
  4                   39.72      open
  5                   24.48      open
  6                  208.82      open
  7                   94.04      open
  8                  389.55      open
   
   
  Node Results at 4:35:00 hrs:
  ----------------------------------------------
                     Demand      Head  Pressure
  Node                 m3/h         m         m
  ----------------------------------------------
  1                   36.55    206.77     46.77
  2                   36.55    208.87     58.87
  3                   98.69    204.74     54.74
  4                   43.86    208.21     53.21
  5                   73.10    206.15     46.15
  6                  120.62    207.58     42.58
  7                 -409.37    210.00      0.00  Reservoir
   
   
  Link Results at 4:35:00 hrs:
  ------------------------------------
                       Flow     State
  Link                 m3/h          
  ------------------------------------
  1                   67.77      open
  2                   31.22      open
  3                  305.04      open
  4                   41.74      open
  5                   25.73      open
  6                  219.44      open
  7                   98.83      open
  8                  409.37      open
   
   
  Node Results at 4:40:00 hrs:
  ----------------------------------------------
                     Demand      Head  Pressure
  Node                 m3/h         m         m
  ----------------------------------------------
  1                   37.11    206.67     46.67
  2                   37.11    208.84     58.84
  3                  100.20    204.59     54.59
  4                   44.53    208.16     53.16
  5                   74.22    206.04     46.04
  6                  122.46    207.51     42.51
  7                 -415.64    210.00      0.00  Reservoir
   
   
  Link Results at 4:40:00 hrs:
  ------------------------------------
                       Flow     State
  Link                 m3/h          
  ------------------------------------
  1                   68.81      open
  2                   31.70      open
  3                  309.71      open
  4                   42.38      open
  5                   26.12      open
  6                  222.80      open
  7                  100.34      open
  8                  415.64      open
   
   
  Node Results at 4:45:00 hrs:
  ----------------------------------------------
                     Demand      Head  Pressure
  Node                 m3/h         m         m
  ----------------------------------------------
  1                   38.46    206.45     46.45
  2                   38.46    208.76     58.76
  3                  103.85    204.21     54.21
  4                   46.16    208.04     53.04
  5                   76.93    205.77     45.77
  6                  126.93    207.34     42.34
  7                 -430.80    210.00      0.00  Reservoir
   
   
  Link Results at 4:45:00 hrs:
  ------------------------------------
                       Flow     State
  Link                 m3/h          
  ------------------------------------
  1                   71.32      open
  2                   32.86      open
  3                  321.01      open
  4                   43.92      open
  5                   27.07      open
  6                  230.93      open
  7                  104.00      open
  8                  430.80      open
   
   
  Node Results at 4:50:00 hrs:
  ----------------------------------------------
                     Demand      Head  Pressure
  Node                 m3/h         m         m
  ----------------------------------------------
  1                   37.88    206.55     46.55
  2                   37.88    208.79     58.79
  3                  102.27    204.38     54.38
  4                   45.45    208.09     53.09
  5                   75.76    205.89     45.89
  6                  125.00    207.41     42.41
  7                 -424.24    210.00      0.00  Reservoir
   
   
  Link Results at 4:50:00 hrs:
  ------------------------------------
                       Flow     State
  Link                 m3/h          
  ------------------------------------
  1                   70.24      open
  2                   32.36      open
  3                  316.13      open
  4                   43.25      open
  5                   26.66      open
  6                  227.42      open
  7                  102.42      open
  8                  424.24      open
   
   
  Node Results at 4:55:00 hrs:
  ----------------------------------------------
                     Demand      Head  Pressure
  Node                 m3/h         m         m
  ----------------------------------------------
  1                   38.97    206.36     46.36
  2                   38.97    208.73     58.73
  3                  105.22    204.07     54.07
  4                   46.77    207.99     52.99
  5                   77.94    205.67     45.67
  6                  128.61    207.27     42.27
  7                 -436.49    210.00      0.00  Reservoir
   
   
  Link Results at 4:55:00 hrs:
  ------------------------------------
                       Flow     State
  Link                 m3/h          
  ------------------------------------
  1                   72.26      open
  2                   33.29      open
  3                  325.25      open
  4                   44.50      open
  5                   27.43      open
  6                  233.98      open
  7                  105.37      open
  8                  436.49      open
   
   
  Node Results at 5:00:00 hrs:
  ----------------------------------------------
                     Demand      Head  Pressure
  Node                 m3/h         m         m
  ----------------------------------------------
  1                   38.92    206.37     46.37
  2                   38.92    208.73     58.73
  3                  105.10    204.08     54.08
  4                   46.71    207.99     52.99
  5                   77.85    205.68     45.68
  6                  128.45    207.28     42.28
  7                 -435.95    210.00      0.00  Reservoir
   
   
  Link Results at 5:00:00 hrs:
  ------------------------------------
                       Flow     State
  Link                 m3/h          
  ------------------------------------
  1                   72.18      open
  2                   33.25      open
  3                  324.85      open
  4                   44.45      open
  5                   27.40      open
  6                  233.69      open
  7                  105.24      open
  8                  435.95      open
   
   
  Node Results at 5:05:00 hrs:
  ----------------------------------------------
                     Demand      Head  Pressure
  Node                 m3/h         m         m
  ----------------------------------------------
  1                   39.62    206.25     46.25
  2                   39.62    208.69     58.69
  3                  106.99    203.89     53.89
  4                   47.55    207.92     52.92
  5                   79.25    205.53     45.53
  6                  130.76    207.19     42.19
  7                 -443.80    210.00      0.00  Reservoir
   
   
  Link Results at 5:05:00 hrs:
  ------------------------------------
                       Flow     State
  Link                 m3/h          
  ------------------------------------
  1                   73.48      open
  2                   33.85      open
  3                  330.70      open
  4                   45.25      open
  5                   27.89      open
  6                  237.90      open
  7                  107.14      open
  8                  443.80      open
   
   
  Node Results at 5:10:00 hrs:
  ----------------------------------------------
                     Demand      Head  Pressure
  Node                 m3/h         m         m
  ----------------------------------------------
  1                   38.91    206.37     46.37
  2                   38.91    208.73     58.73
  3                  105.06    204.09     54.09
  4                   46.70    207.99     52.99
  5                   77.83    205.68     45.68
  6                  128.41    207.28     42.28
  7                 -435.82    210.00      0.00  Reservoir
   
   
  Link Results at 5:10:00 hrs:
  ------------------------------------
                       Flow     State
  Link                 m3/h          
  ------------------------------------
  1                   72.16      open
  2                   33.24      open
  3                  324.76      open
  4                   44.43      open
  5                   27.39      open
  6                  233.63      open
  7                  105.21      open
  8                  435.82      open
   
   
  Node Results at 5:15:00 hrs:
  ----------------------------------------------
                     Demand      Head  Pressure
  Node                 m3/h         m         m
  ----------------------------------------------
  1                   37.37    206.63     46.63
  2                   37.37    208.82     58.82
  3                  100.91    204.51     54.51
  4                   44.85    208.14     53.14
  5                   74.75    205.99     45.99
  6                  123.33    207.48     42.48
  7                 -418.57    210.00      0.00  Reservoir
   
   
  Link Results at 5:15:00 hrs:
  ------------------------------------
                       Flow     State
  Link                 m3/h          
  ------------------------------------
  1                   69.30      open
  2                   31.93      open
  3                  311.90      open
  4                   42.68      open
  5                   26.30      open
  6                  224.38      open
  7                  101.05      open
  8                  418.57      open
   
   
  Node Results at 5:20:00 hrs:
  ----------------------------------------------
                     Demand      Head  Pressure
  Node                 m3/h         m         m
  ----------------------------------------------
  1                   40.35    206.12     46.12
  2                   40.35    208.64     58.64
  3                  108.94    203.68     53.68
  4                   48.42    207.85     52.85
  5                   80.69    205.38     45.38
  6                  133.15    207.09     42.09
  7                 -451.89    210.00      0.00  Reservoir
   
   
  Link Results at 5:20:00 hrs:
  ------------------------------------
                       Flow     State
  Link                 m3/h          
  ------------------------------------
  1                   74.82      open
  2                   34.47      open
  3                  336.73      open
  4                   46.07      open
  5                   28.40      open
  6                  242.24      open
  7                  109.09      open
  8                  451.89      open
   
   
  Node Results at 5:25:00 hrs:
  ----------------------------------------------
                     Demand      Head  Pressure
  Node                 m3/h         m         m
  ----------------------------------------------
  1                   39.42    206.28     46.28
  2                   39.42    208.70     58.70
  3                  106.44    203.94     53.94
  4                   47.31    207.94     52.94
  5                   78.85    205.58     45.58
  6                  130.09    207.22     42.22
  7                 -441.53    210.00      0.00  Reservoir
   
   
  Link Results at 5:25:00 hrs:
  ------------------------------------
                       Flow     State
  Link                 m3/h          
  ------------------------------------
  1                   73.10      open
  2                   33.68      open
  3                  329.01      open
  4                   45.02      open
  5                   27.75      open
  6                  236.69      open
  7                  106.59      open
  8                  441.53      open
   
   
  Node Results at 5:30:00 hrs:
  ----------------------------------------------
                     Demand      Head  Pressure
  Node                 m3/h         m         m
  ----------------------------------------------
  1                   37.62    206.59     46.59
  2                   37.62    208.81     58.81
  3                  101.57    204.45     54.45
  4                   45.14    208.11     53.11
  5                   75.24    205.94     45.94
  6                  124.15    207.45     42.45
  7                 -421.34    210.00      0.00  Reservoir
   
   
  Link Results at 5:30:00 hrs:
  ------------------------------------
                       Flow     State
  Link                 m3/h          
  ------------------------------------
  1                   69.76      open
  2                   32.14      open
  3                  313.97      open
  4                   42.96      open
  5                   26.48      open
  6                  225.86      open
  7                  101.72      open
  8                  421.34      open
   
   
  Node Results at 5:35:00 hrs:
  ----------------------------------------------
                     Demand      Head  Pressure
  Node                 m3/h         m         m
  ----------------------------------------------
  1                   41.44    205.92     45.92
  2                   41.44    208.57     58.57
  3                  111.89    203.36     53.36
  4                   49.73    207.74     52.74
  5                   82.88    205.15     45.15
  6                  136.75    206.95     41.95
  7                 -464.12    210.00      0.00  Reservoir
   
   
  Link Results at 5:35:00 hrs:
  ------------------------------------
                       Flow     State
  Link                 m3/h          
  ------------------------------------
  1                   76.84      open
  2                   35.40      open
  3                  345.84      open
  4                   47.32      open
  5                   29.17      open
  6                  248.79      open
  7                  112.04      open
  8                  464.12      open
   
   
  Node Results at 5:40:00 hrs:
  ----------------------------------------------
                     Demand      Head  Pressure
  Node                 m3/h         m         m
  ----------------------------------------------
  1                   39.98    206.18     46.18
  2                   39.98    208.66     58.66
  3                  107.94    203.79     53.79
  4                   47.97    207.89     52.89
  5                   79.95    205.46     45.46
  6                  131.92    207.14     42.14
  7                 -447.74    210.00      0.00  Reservoir
   
   
  Link Results at 5:40:00 hrs:
  ------------------------------------
                       Flow     State
  Link                 m3/h          
  ------------------------------------
  1                   74.13      open
  2                   34.15      open
  3                  333.63      open
  4                   45.65      open
  5                   28.14      open
  6                  240.01      open
  7                  108.09      open
  8                  447.74      open
   
   
  Node Results at 5:45:00 hrs:
  ----------------------------------------------
                     Demand      Head  Pressure
  Node                 m3/h         m         m
  ----------------------------------------------
  1                   42.81    205.67     45.67
  2                   42.81    208.48     58.48
  3                  115.59    202.94     52.94
  4                   51.37    207.60     52.60
  5                   85.62    204.85     44.85
  6                  141.27    206.76     41.76
  7                 -479.48    210.00      0.00  Reservoir
   
   
  Link Results at 5:45:00 hrs:
  ------------------------------------
                       Flow     State
  Link                 m3/h          
  ------------------------------------
  1                   79.38      open
  2                   36.57      open
  3                  357.28      open
  4                   48.88      open
  5                   30.13      open
  6                  257.03      open
  7                  115.75      open
  8                  479.48      open
   
   
  Node Results at 5:50:00 hrs:
  ----------------------------------------------
                     Demand      Head  Pressure
  Node                 m3/h         m         m
  ----------------------------------------------
  1                   45.79    205.09     45.09
  2                   45.79    208.28     58.28
  3                  123.64    202.01     52.01
  4                   54.95    207.29     52.29
  5                   91.58    204.16     44.16
  6                  151.12    206.33     41.33
  7                 -512.88    210.00      0.00  Reservoir
   
   
  Link Results at 5:50:00 hrs:
  ------------------------------------
                       Flow     State
  Link                 m3/h          
  ------------------------------------
  1                   84.91      open
  2                   39.12      open
  3                  382.17      open
  4                   52.29      open
  5                   32.23      open
  6                  274.93      open
  7                  123.81      open
  8                  512.88      open
   
   
  Node Results at 5:55:00 hrs:
  ----------------------------------------------
                     Demand      Head  Pressure
  Node                 m3/h         m         m
  ----------------------------------------------
  1                   47.13    204.82     44.82
  2                   47.13    208.19     58.19
  3                  127.26    201.57     51.57
  4                   56.56    207.14     52.14
  5                   94.27    203.84     43.84
  6                  155.54    206.12     41.12
  7                 -527.89    210.00      0.00  Reservoir
   
   
  Link Results at 5:55:00 hrs:
  ------------------------------------
                       Flow     State
  Link                 m3/h          
  ------------------------------------
  1                   87.40      open
  2                   40.26      open
  3                  393.36      open
  4                   53.82      open
  5                   33.17      open
  6                  282.98      open
  7                  127.44      open
  8                  527.89      open
   
   
  Node Results at 6:00:00 hrs:
  ----------------------------------------------
                     Demand      Head  Pressure
  Node                 m3/h         m         m
  ----------------------------------------------
  1                   52.28    203.73     43.73
  2                   52.28    207.80     57.80
  3                  141.15    199.79     49.79
  4                   62.73    206.53     51.53
  5                  104.56    202.54     42.54
  6                  172.52    205.30     40.30
  7                 -585.52    210.00      0.00  Reservoir
   
   
  Link Results at 6:00:00 hrs:
  ------------------------------------
                       Flow     State
  Link                 m3/h          
  ------------------------------------
  1                   96.94      open
  2                   44.66      open
  3                  436.30      open
  4                   59.70      open
  5                   36.80      open
  6                  313.87      open
  7                  141.35      open
  8                  585.52      open
   
   
  Node Results at 6:05:00 hrs:
  ----------------------------------------------
                     Demand      Head  Pressure
  Node                 m3/h         m         m
  ----------------------------------------------
  1                   51.22    203.96     43.96
  2                   51.22    207.89     57.89
  3                  138.29    200.17     50.17
  4                   61.46    206.66     51.66
  5                  102.44    202.82     42.82
  6                  169.02    205.48     40.48
  7                 -573.65    210.00      0.00  Reservoir
   
   
  Link Results at 6:05:00 hrs:
  ------------------------------------
                       Flow     State
  Link                 m3/h          
  ------------------------------------
  1                   94.97      open
  2                   43.75      open
[...]
   
   
  Link Results at 70:30:00 hrs:
  ------------------------------------
                       Flow     State
  Link                 m3/h          
  ------------------------------------
  1                  242.60      open
  2                  111.77      open
  3                 1091.88      open
  4                  149.39      open
  5                   92.08      open
  6                  785.49      open
  7                  353.74      open
  8                 1465.30      open
   
   
  Node Results at 70:35:00 hrs:
  ----------------------------------------------
                     Demand      Head  Pressure
  Node                 m3/h         m         m
  ----------------------------------------------
  1                  123.41    179.22     19.22
  2                  123.41    199.23     49.23
  3                  333.21    159.87      9.87
  4                  148.09    192.98     37.98
  5                  246.82    173.39     13.39
  6                  407.25    186.96     21.96
  7                -1382.20    210.00      0.00  Reservoir
   
   
  Link Results at 70:35:00 hrs:
  ------------------------------------
                       Flow     State
  Link                 m3/h          
  ------------------------------------
  1                  228.84      open
  2                  105.43      open
  3                 1029.95      open
  4                  140.92      open
  5                   86.86      open
  6                  740.94      open
  7                  333.68      open
  8                 1382.20      open
   
   
  Node Results at 70:40:00 hrs:
  ----------------------------------------------
                     Demand      Head  Pressure
  Node                 m3/h         m         m
  ----------------------------------------------
  1                  121.40    180.14     20.14
  2                  121.40    199.55     49.55
  3                  327.78    161.38     11.38
  4                  145.68    193.49     38.49
  5                  242.80    174.48     14.48
  6                  400.62    187.65     22.65
  7                -1359.69    210.00      0.00  Reservoir
   
   
  Link Results at 70:40:00 hrs:
  ------------------------------------
                       Flow     State
  Link                 m3/h          
  ------------------------------------
  1                  225.11      open
  2                  103.71      open
  3                 1013.18      open
  4                  138.63      open
  5                   85.45      open
  6                  728.87      open
  7                  328.25      open
  8                 1359.69      open
   
   
  Node Results at 70:45:00 hrs:
  ----------------------------------------------
                     Demand      Head  Pressure
  Node                 m3/h         m         m
  ----------------------------------------------
  1                  124.22    178.84     18.84
  2                  124.22    199.10     49.10
  3                  335.39    159.26      9.26
  4                  149.06    192.77     37.77
  5                  248.44    172.94     12.94
  6                  409.93    186.68     21.68
  7                -1391.27    210.00      0.00  Reservoir
   
   
  Link Results at 70:45:00 hrs:
  ------------------------------------
                       Flow     State
  Link                 m3/h          
  ------------------------------------
  1                  230.34      open
  2                  106.12      open
  3                 1036.71      open
  4                  141.85      open
  5                   87.43      open
  6                  745.80      open
  7                  335.87      open
  8                 1391.27      open
   
   
  Node Results at 70:50:00 hrs:
  ----------------------------------------------
                     Demand      Head  Pressure
  Node                 m3/h         m         m
  ----------------------------------------------
  1                  110.15    185.06     25.06
  2                  110.15    201.27     51.27
  3                  297.39    169.39     19.39
  4                  132.17    196.21     41.21
  5                  220.29    180.34     20.34
  6                  363.48    191.33     26.33
  7                -1233.63    210.00      0.00  Reservoir
   
   
  Link Results at 70:50:00 hrs:
  ------------------------------------
                       Flow     State
  Link                 m3/h          
  ------------------------------------
  1                  204.24      open
  2                   94.09      open
  3                  919.24      open
  4                  125.77      open
  5                   77.52      open
  6                  661.29      open
  7                  297.81      open
  8                 1233.63      open
   
   
  Node Results at 70:55:00 hrs:
  ----------------------------------------------
                     Demand      Head  Pressure
  Node                 m3/h         m         m
  ----------------------------------------------
  1                  115.88    182.61     22.61
  2                  115.88    200.41     50.41
  3                  312.87    165.39     15.39
  4                  139.05    194.85     39.85
  5                  231.76    177.42     17.42
  6                  382.40    189.49     24.49
  7                -1297.83    210.00      0.00  Reservoir
   
   
  Link Results at 70:55:00 hrs:
  ------------------------------------
                       Flow     State
  Link                 m3/h          
  ------------------------------------
  1                  214.87      open
  2                   98.99      open
  3                  967.08      open
  4                  132.32      open
  5                   81.56      open
  6                  695.71      open
  7                  313.31      open
  8                 1297.83      open
   
   
  Node Results at 71:00:00 hrs:
  ----------------------------------------------
                     Demand      Head  Pressure
  Node                 m3/h         m         m
  ----------------------------------------------
  1                  118.33    181.52     21.52
  2                  118.33    200.04     50.04
  3                  319.49    163.63     13.63
  4                  142.00    194.26     39.26
  5                  236.66    176.13     16.13
  6                  390.49    188.68     23.68
  7                -1325.29    210.00      0.00  Reservoir
   
   
  Link Results at 71:00:00 hrs:
  ------------------------------------
                       Flow     State
  Link                 m3/h          
  ------------------------------------
  1                  219.42      open
  2                  101.09      open
  3                  987.55      open
  4                  135.12      open
  5                   83.28      open
  6                  710.43      open
  7                  319.94      open
  8                 1325.29      open
   
   
  Node Results at 71:05:00 hrs:
  ----------------------------------------------
                     Demand      Head  Pressure
  Node                 m3/h         m         m
  ----------------------------------------------
  1                  111.97    184.29     24.29
  2                  111.97    201.00     51.00
  3                  302.31    168.14     18.14
  4                  134.36    195.79     40.79
  5                  223.94    179.42     19.42
  6                  369.49    190.76     25.76
  7                -1254.04    210.00      0.00  Reservoir
   
   
  Link Results at 71:05:00 hrs:
  ------------------------------------
                       Flow     State
  Link                 m3/h          
  ------------------------------------
  1                  207.62      open
  2                   95.65      open
  3                  934.45      open
  4                  127.86      open
  5                   78.81      open
  6                  672.24      open
  7                  302.74      open
  8                 1254.04      open
   
   
  Node Results at 71:10:00 hrs:
  ----------------------------------------------
                     Demand      Head  Pressure
  Node                 m3/h         m         m
  ----------------------------------------------
  1                  111.79    184.37     24.37
  2                  111.79    201.03     51.03
  3                  301.84    168.26     18.26
  4                  134.15    195.83     40.83
  5                  223.58    179.51     19.51
  6                  368.91    190.81     25.81
  7                -1252.07    210.00      0.00  Reservoir
   
   
  Link Results at 71:10:00 hrs:
  ------------------------------------
                       Flow     State
  Link                 m3/h          
  ------------------------------------
  1                  207.29      open
  2                   95.50      open
  3                  932.98      open
  4                  127.65      open
  5                   78.68      open
  6                  671.18      open
  7                  302.27      open
  8                 1252.07      open
   
   
  Node Results at 71:15:00 hrs:
  ----------------------------------------------
                     Demand      Head  Pressure
  Node                 m3/h         m         m
  ----------------------------------------------
  1                  112.69    183.99     23.99
  2                  112.69    200.90     50.90
  3                  304.26    167.64     17.64
  4                  135.23    195.62     40.62
  5                  225.38    179.06     19.06
  6                  371.87    190.53     25.53
  7                -1262.12    210.00      0.00  Reservoir
   
   
  Link Results at 71:15:00 hrs:
  ------------------------------------
                       Flow     State
  Link                 m3/h          
  ------------------------------------
  1                  208.96      open
  2                   96.27      open
  3                  940.47      open
  4                  128.68      open
  5                   79.31      open
  6                  676.57      open
  7                  304.69      open
  8                 1262.12      open
   
   
  Node Results at 71:20:00 hrs:
  ----------------------------------------------
                     Demand      Head  Pressure
  Node                 m3/h         m         m
  ----------------------------------------------
  1                  105.22    187.09     27.09
  2                  105.22    201.98     51.98
  3                  284.10    172.69     22.69
  4                  126.27    197.33     42.33
  5                  210.44    182.75     22.75
  6                  347.23    192.85     27.85
  7                -1178.49    210.00      0.00  Reservoir
   
   
  Link Results at 71:20:00 hrs:
  ------------------------------------
                       Flow     State
  Link                 m3/h          
  ------------------------------------
  1                  195.11      open
  2                   89.89      open
  3                  878.16      open
  4                  120.15      open
  5                   74.06      open
  6                  631.74      open
  7                  284.50      open
  8                 1178.49      open
   
   
  Node Results at 71:25:00 hrs:
  ----------------------------------------------
                     Demand      Head  Pressure
  Node                 m3/h         m         m
  ----------------------------------------------
  1                  108.60    185.71     25.71
  2                  108.60    201.50     51.50
  3                  293.23    170.44     20.44
  4                  130.32    196.57     41.57
  5                  217.21    181.10     21.10
  6                  358.39    191.81     26.81
  7                -1216.37    210.00      0.00  Reservoir
   
   
  Link Results at 71:25:00 hrs:
  ------------------------------------
                       Flow     State
  Link                 m3/h          
  ------------------------------------
  1                  201.38      open
  2                   92.78      open
  3                  906.38      open
  4                  124.01      open
  5                   76.44      open
  6                  652.04      open
  7                  293.65      open
  8                 1216.37      open
   
   
  Node Results at 71:30:00 hrs:
  ----------------------------------------------
                     Demand      Head  Pressure
  Node                 m3/h         m         m
  ----------------------------------------------
  1                  105.70    186.90     26.90
  2                  105.70    201.92     51.92
  3                  285.38    172.38     22.38
  4                  126.83    197.23     42.23
  5                  211.39    182.52     22.52
  6                  348.80    192.70     27.70
  7                -1183.79    210.00      0.00  Reservoir
   
   
  Link Results at 71:30:00 hrs:
  ------------------------------------
                       Flow     State
  Link                 m3/h          
  ------------------------------------
  1                  195.99      open
  2                   90.29      open
  3                  882.11      open
  4                  120.69      open
  5                   74.39      open
  6                  634.58      open
  7                  285.78      open
  8                 1183.79      open
   
   
  Node Results at 71:35:00 hrs:
  ----------------------------------------------
                     Demand      Head  Pressure
  Node                 m3/h         m         m
  ----------------------------------------------
  1                  105.56    186.95     26.95
  2                  105.56    201.93     51.93
  3                  285.01    172.47     22.47
  4                  126.67    197.26     42.26
  5                  211.12    182.59     22.59
  6                  348.35    192.75     27.75
  7                -1182.26    210.00      0.00  Reservoir
   
   
  Link Results at 71:35:00 hrs:
  ------------------------------------
                       Flow     State
  Link                 m3/h          
  ------------------------------------
  1                  195.74      open
  2                   90.18      open
  3                  880.97      open
  4                  120.54      open
  5                   74.30      open
  6                  633.76      open
  7                  285.41      open
  8                 1182.26      open
   
   
  Node Results at 71:40:00 hrs:
  ----------------------------------------------
                     Demand      Head  Pressure
  Node                 m3/h         m         m
  ----------------------------------------------
  1                  107.47    186.17     26.17
  2                  107.47    201.66     51.66
  3                  290.16    171.20     21.20
  4                  128.96    196.83     41.83
  5                  214.93    181.66     21.66
  6                  354.64    192.16     27.16
  7                -1203.63    210.00      0.00  Reservoir
   
   
  Link Results at 71:40:00 hrs:
  ------------------------------------
                       Flow     State
  Link                 m3/h          
  ------------------------------------
  1                  199.27      open
  2                   91.81      open
  3                  896.89      open
  4                  122.72      open
  5                   75.64      open
  6                  645.21      open
  7                  290.57      open
  8                 1203.63      open
   
   
  Node Results at 71:45:00 hrs:
  ----------------------------------------------
                     Demand      Head  Pressure
  Node                 m3/h         m         m
  ----------------------------------------------
  1                  100.51    188.95     28.95
  2                  100.51    202.63     52.63
  3                  271.37    175.73     25.73
  4                  120.61    198.36     43.36
  5                  201.02    184.97     24.97
  6                  331.68    194.24     29.24
  7                -1125.70    210.00      0.00  Reservoir
   
   
  Link Results at 71:45:00 hrs:
  ------------------------------------
                       Flow     State
  Link                 m3/h          
  ------------------------------------
  1                  186.37      open
  2                   85.86      open
  3                  838.82      open
  4                  114.77      open
  5                   70.74      open
  6                  603.44      open
  7                  271.76      open
  8                 1125.70      open
   
   
  Node Results at 71:50:00 hrs:
  ----------------------------------------------
                     Demand      Head  Pressure
  Node                 m3/h         m         m
  ----------------------------------------------
  1                   96.82    190.36     30.36
  2                   96.82    203.13     53.13
  3                  261.40    178.02     28.02
  4                  116.18    199.14     44.14
  5                  193.63    186.64     26.64
  6                  319.49    195.30     30.30
  7                -1084.33    210.00      0.00  Reservoir
   
   
  Link Results at 71:50:00 hrs:
  ------------------------------------
                       Flow     State
  Link                 m3/h          
  ------------------------------------
  1                  179.52      open
  2                   82.71      open
  3                  808.00      open
  4                  110.55      open
  5                   68.14      open
  6                  581.26      open
  7                  261.77      open
  8                 1084.33      open
   
   
  Node Results at 71:55:00 hrs:
  ----------------------------------------------
                     Demand      Head  Pressure
  Node                 m3/h         m         m
  ----------------------------------------------
  1                   93.83    191.47     31.47
  2                   93.83    203.51     53.51
  3                  253.35    179.82     29.82
  4                  112.60    199.75     44.75
  5                  187.67    187.96     27.96
  6                  309.65    196.13     31.13
  7                -1050.94    210.00      0.00  Reservoir
   
   
  Link Results at 71:55:00 hrs:
  ------------------------------------
                       Flow     State
  Link                 m3/h          
  ------------------------------------
  1                  173.99      open
  2                   80.16      open
  3                  783.11      open
  4                  107.15      open
  5                   66.04      open
  6                  563.36      open
  7                  253.71      open
  8                 1050.94      open
   
   
  Node Results at 72:00:00 hrs:
  ----------------------------------------------
                     Demand      Head  Pressure
  Node                 m3/h         m         m
  ----------------------------------------------
  1                   96.35    190.54     30.54
  2                   96.35    203.19     53.19
  3                  260.15    178.31     28.31
  4                  115.62    199.24     44.24
  5                  192.70    186.85     26.85
  6                  317.96    195.43     30.43
  7                -1079.13    210.00      0.00  Reservoir
   
   
  Link Results at 72:00:00 hrs:
  ------------------------------------
                       Flow     State
  Link                 m3/h          
  ------------------------------------
  1                  178.66      open
  2                   82.31      open
  3                  804.12      open
  4                  110.02      open
  5                   67.81      open
  6                  578.47      open
  7                  260.52      open
  8                 1079.13      open
   
  Analysis ended Tue Mar  7 12:01:45 2023
